
     RDKit          3D

 21 20  0  0  0  0  0  0  0  0999 V2000
    3.1815    0.3989    2.0352 O   0  0  0  0  0  0  0  0  0  0  0  0
    3.1994    1.1687    0.8548 C   0  0  0  0  0  0  0  0  0  0  0  0
    2.3162    0.5071   -0.1643 C   0  0  0  0  0  0  0  0  0  0  0  0
    2.2416    1.1017   -1.2836 O   0  0  0  0  0  0  0  0  0  0  0  0
    1.6467   -0.6518    0.1075 O   0  0  0  0  0  0  0  0  0  0  0  0
    0.8038   -1.2920   -0.8510 C   0  0  0  0  0  0  0  0  0  0  0  0
   -0.2751   -0.2998   -1.1976 C   0  0  0  0  0  0  0  0  0  0  0  0
   -0.3068    0.8432   -0.6663 O   0  0  0  0  0  0  0  0  0  0  0  0
   -1.2133   -0.7318   -2.1285 O   0  0  0  0  0  0  0  0  0  0  0  0
   -2.2340    0.1921   -2.4636 C   0  0  0  0  0  0  0  0  0  0  0  0
   -2.9885    0.5315   -1.2286 C   0  0  0  0  0  0  0  0  0  0  0  0
   -3.9457    1.3480   -1.3258 O   0  0  0  0  0  0  0  0  0  0  0  0
   -2.7140    0.0156    0.0137 O   0  0  0  0  0  0  0  0  0  0  0  0
    3.0754    0.9761    2.8144 H   0  0  0  0  0  0  0  0  0  0  0  0
    4.2319    1.3121    0.4971 H   0  0  0  0  0  0  0  0  0  0  0  0
    2.7087    2.1296    1.0979 H   0  0  0  0  0  0  0  0  0  0  0  0
    1.3458   -1.6167   -1.7424 H   0  0  0  0  0  0  0  0  0  0  0  0
    0.2732   -2.1342   -0.3692 H   0  0  0  0  0  0  0  0  0  0  0  0
   -2.9019   -0.2031   -3.2549 H   0  0  0  0  0  0  0  0  0  0  0  0
   -1.7618    1.1219   -2.8829 H   0  0  0  0  0  0  0  0  0  0  0  0
   -3.4344   -0.1318    0.7362 H   0  0  0  0  0  0  0  0  0  0  0  0
  1  2  1  0
  2  3  1  0
  3  4  2  0
  3  5  1  0
  5  6  1  0
  6  7  1  0
  7  8  2  0
  7  9  1  0
  9 10  1  0
 10 11  1  0
 11 12  2  0
 11 13  1  0
  1 14  1  0
  2 15  1  0
  2 16  1  0
  6 17  1  0
  6 18  1  0
 10 19  1  0
 10 20  1  0
 13 21  1  0
M  END
