
     RDKit          3D

 39 38  0  0  0  0  0  0  0  0999 V2000
   -2.4660   -0.9180    0.6761 C   0  0  0  0  0  0  0  0  0  0  0  0
   -2.2947   -2.4164    0.7302 C   0  0  0  0  0  0  0  0  0  0  0  0
   -1.6238   -2.8904    1.9737 C   0  0  2  0  0  0  0  0  0  0  0  0
   -2.3233   -2.5507    3.1028 O   0  0  0  0  0  0  0  0  0  0  0  0
   -0.1762   -2.4682    2.0650 C   0  0  0  0  0  0  0  0  0  0  0  0
    0.1371   -1.9176    3.1013 O   0  0  0  0  0  0  0  0  0  0  0  0
    0.6796   -2.7587    0.9235 C   0  0  0  0  0  0  0  0  0  0  0  0
    2.0878   -2.3394    0.9661 C   0  0  0  0  0  0  0  0  0  0  0  0
    2.4205   -0.9094    1.0887 C   0  0  2  0  0  0  0  0  0  0  0  0
    1.9374   -0.3073    2.2301 O   0  0  0  0  0  0  0  0  0  0  0  0
    2.1495   -0.1152   -0.1509 C   0  0  0  0  0  0  0  0  0  0  0  0
    2.5330   -0.5996   -1.1924 O   0  0  0  0  0  0  0  0  0  0  0  0
    1.4474    1.1702    0.0163 C   0  0  0  0  0  0  0  0  0  0  0  0
    1.0935    1.8935   -1.2342 C   0  0  0  0  0  0  0  0  0  0  0  0
    0.1469    1.2171   -2.1635 C   0  0  2  0  0  0  0  0  0  0  0  0
    0.5744   -0.0022   -2.6503 O   0  0  0  0  0  0  0  0  0  0  0  0
   -0.1378    2.0849   -3.3686 C   0  0  0  0  0  0  0  0  0  0  0  0
   -0.5487    3.2601   -3.1789 O   0  0  0  0  0  0  0  0  0  0  0  0
    0.0363    1.6353   -4.6559 O   0  0  0  0  0  0  0  0  0  0  0  0
   -1.5283   -0.3651    0.6211 H   0  0  0  0  0  0  0  0  0  0  0  0
   -3.0987   -0.7274   -0.2340 H   0  0  0  0  0  0  0  0  0  0  0  0
   -3.0341   -0.5398    1.5350 H   0  0  0  0  0  0  0  0  0  0  0  0
   -1.7521   -2.7650   -0.1709 H   0  0  0  0  0  0  0  0  0  0  0  0
   -3.3057   -2.8737    0.7140 H   0  0  0  0  0  0  0  0  0  0  0  0
   -1.5735   -4.0089    1.9073 H   0  0  0  0  0  0  0  0  0  0  0  0
   -2.0608   -1.6439    3.3872 H   0  0  0  0  0  0  0  0  0  0  0  0
    0.2506   -2.4232   -0.0538 H   0  0  0  0  0  0  0  0  0  0  0  0
    0.6845   -3.8875    0.8136 H   0  0  0  0  0  0  0  0  0  0  0  0
    2.5843   -2.7830    0.0494 H   0  0  0  0  0  0  0  0  0  0  0  0
    2.5899   -2.8886    1.8167 H   0  0  0  0  0  0  0  0  0  0  0  0
    3.5484   -0.8514    1.1915 H   0  0  0  0  0  0  0  0  0  0  0  0
    2.5218   -0.5412    3.0005 H   0  0  0  0  0  0  0  0  0  0  0  0
    0.4689    0.9556    0.5471 H   0  0  0  0  0  0  0  0  0  0  0  0
    2.0311    1.8731    0.6679 H   0  0  0  0  0  0  0  0  0  0  0  0
    2.0476    2.1896   -1.7701 H   0  0  0  0  0  0  0  0  0  0  0  0
    0.6427    2.8743   -0.9490 H   0  0  0  0  0  0  0  0  0  0  0  0
   -0.8775    1.1224   -1.6870 H   0  0  0  0  0  0  0  0  0  0  0  0
    0.4838   -0.0825   -3.6207 H   0  0  0  0  0  0  0  0  0  0  0  0
    0.0385    2.2235   -5.4696 H   0  0  0  0  0  0  0  0  0  0  0  0
  1  2  1  0
  2  3  1  0
  3  4  1  0
  3  5  1  0
  5  6  2  0
  5  7  1  0
  7  8  1  0
  8  9  1  0
  9 10  1  0
  9 11  1  0
 11 12  2  0
 11 13  1  0
 13 14  1  0
 14 15  1  0
 15 16  1  0
 15 17  1  0
 17 18  2  0
 17 19  1  0
  1 20  1  0
  1 21  1  0
  1 22  1  0
  2 23  1  0
  2 24  1  0
  3 25  1  6
  4 26  1  0
  7 27  1  0
  7 28  1  0
  8 29  1  0
  8 30  1  0
  9 31  1  1
 10 32  1  0
 13 33  1  0
 13 34  1  0
 14 35  1  0
 14 36  1  0
 15 37  1  1
 16 38  1  0
 19 39  1  0
M  END
