
     RDKit          3D

 61 60  0  0  0  0  0  0  0  0999 V2000
   -4.4258   -5.3933   -1.6449 N   0  0  0  0  0  0  0  0  0  0  0  0
   -4.7474   -4.2213   -2.4141 C   0  0  0  0  0  0  0  0  0  0  0  0
   -4.6014   -2.9272   -1.6986 C   0  0  0  0  0  0  0  0  0  0  0  0
   -3.2308   -2.5908   -1.2015 C   0  0  0  0  0  0  0  0  0  0  0  0
   -2.6366   -3.5405   -0.2280 C   0  0  0  0  0  0  0  0  0  0  0  0
   -1.2896   -3.1041    0.2144 C   0  0  0  0  0  0  0  0  0  0  0  0
   -1.2139   -1.8168    0.9252 C   0  0  0  0  0  0  0  0  0  0  0  0
   -2.2904   -1.2336    1.1895 O   0  0  0  0  0  0  0  0  0  0  0  0
    0.0676   -1.3178    1.2654 N   0  0  0  0  0  0  0  0  0  0  0  0
    0.4202   -0.1258    1.9081 C   0  0  0  0  0  0  0  0  0  0  0  0
    0.2279    1.2059    1.2307 C   0  0  0  0  0  0  0  0  0  0  0  0
   -1.1226    1.5638    0.8104 C   0  0  0  0  0  0  0  0  0  0  0  0
   -1.4092    2.9067    0.2320 C   0  0  0  0  0  0  0  0  0  0  0  0
   -0.7203    3.3580   -0.9766 C   0  0  0  0  0  0  0  0  0  0  0  0
    0.7266    3.6382   -0.9120 C   0  0  0  0  0  0  0  0  0  0  0  0
    1.2279    3.8367    0.2082 O   0  0  0  0  0  0  0  0  0  0  0  0
    1.4657    3.6689   -2.0997 N   0  0  0  0  0  0  0  0  0  0  0  0
    2.8293    3.9222   -2.3624 C   0  0  0  0  0  0  0  0  0  0  0  0
    3.4126    5.2596   -2.1188 C   0  0  0  0  0  0  0  0  0  0  0  0
    3.4413    5.7820   -0.7290 C   0  0  0  0  0  0  0  0  0  0  0  0
    4.2575    4.8680    0.1577 C   0  0  0  0  0  0  0  0  0  0  0  0
    4.2700    5.4024    1.5830 C   0  0  0  0  0  0  0  0  0  0  0  0
    5.0808    4.4750    2.4083 C   0  0  0  0  0  0  0  0  0  0  0  0
    5.6212    3.4426    1.9278 O   0  0  0  0  0  0  0  0  0  0  0  0
    5.2162    4.8236    3.7994 N   0  0  0  0  0  0  0  0  0  0  0  0
   -4.7769   -5.2327   -0.6731 H   0  0  0  0  0  0  0  0  0  0  0  0
   -4.9275   -6.2046   -2.0846 H   0  0  0  0  0  0  0  0  0  0  0  0
   -4.2329   -4.2076   -3.4022 H   0  0  0  0  0  0  0  0  0  0  0  0
   -5.8394   -4.3143   -2.6820 H   0  0  0  0  0  0  0  0  0  0  0  0
   -4.9793   -2.1279   -2.3904 H   0  0  0  0  0  0  0  0  0  0  0  0
   -5.3061   -2.9429   -0.8362 H   0  0  0  0  0  0  0  0  0  0  0  0
   -3.2516   -1.5512   -0.8117 H   0  0  0  0  0  0  0  0  0  0  0  0
   -2.5406   -2.5669   -2.0906 H   0  0  0  0  0  0  0  0  0  0  0  0
   -3.3011   -3.7590    0.6388 H   0  0  0  0  0  0  0  0  0  0  0  0
   -2.4726   -4.5163   -0.7726 H   0  0  0  0  0  0  0  0  0  0  0  0
   -0.6515   -3.0013   -0.7018 H   0  0  0  0  0  0  0  0  0  0  0  0
   -0.8221   -3.9369    0.7884 H   0  0  0  0  0  0  0  0  0  0  0  0
    0.8765   -1.9722    0.9720 H   0  0  0  0  0  0  0  0  0  0  0  0
    1.4910   -0.2281    2.2660 H   0  0  0  0  0  0  0  0  0  0  0  0
   -0.1589   -0.1145    2.8979 H   0  0  0  0  0  0  0  0  0  0  0  0
    0.5681    1.9652    1.9997 H   0  0  0  0  0  0  0  0  0  0  0  0
    0.9909    1.2976    0.3988 H   0  0  0  0  0  0  0  0  0  0  0  0
   -1.4531    0.8091   -0.0116 H   0  0  0  0  0  0  0  0  0  0  0  0
   -1.9059    1.4063    1.6071 H   0  0  0  0  0  0  0  0  0  0  0  0
   -2.5211    2.8937   -0.0127 H   0  0  0  0  0  0  0  0  0  0  0  0
   -1.3390    3.6293    1.0895 H   0  0  0  0  0  0  0  0  0  0  0  0
   -1.2236    4.2826   -1.3737 H   0  0  0  0  0  0  0  0  0  0  0  0
   -0.8436    2.6274   -1.8411 H   0  0  0  0  0  0  0  0  0  0  0  0
    0.8711    3.4583   -2.9887 H   0  0  0  0  0  0  0  0  0  0  0  0
    3.1182    3.5851   -3.4011 H   0  0  0  0  0  0  0  0  0  0  0  0
    3.4593    3.2108   -1.7258 H   0  0  0  0  0  0  0  0  0  0  0  0
    2.9347    6.0362   -2.8237 H   0  0  0  0  0  0  0  0  0  0  0  0
    4.4957    5.2165   -2.4625 H   0  0  0  0  0  0  0  0  0  0  0  0
    4.0171    6.7763   -0.7039 H   0  0  0  0  0  0  0  0  0  0  0  0
    2.4484    5.9907   -0.3523 H   0  0  0  0  0  0  0  0  0  0  0  0
    3.9020    3.8472    0.1597 H   0  0  0  0  0  0  0  0  0  0  0  0
    5.3197    4.9078   -0.1924 H   0  0  0  0  0  0  0  0  0  0  0  0
    4.7281    6.4256    1.6045 H   0  0  0  0  0  0  0  0  0  0  0  0
    3.2334    5.4698    1.9747 H   0  0  0  0  0  0  0  0  0  0  0  0
    6.1060    4.6796    4.3258 H   0  0  0  0  0  0  0  0  0  0  0  0
    4.4163    5.2319    4.3138 H   0  0  0  0  0  0  0  0  0  0  0  0
  1  2  1  0
  2  3  1  0
  3  4  1  0
  4  5  1  0
  5  6  1  0
  6  7  1  0
  7  8  2  0
  7  9  1  0
  9 10  1  0
 10 11  1  0
 11 12  1  0
 12 13  1  0
 13 14  1  0
 14 15  1  0
 15 16  2  0
 15 17  1  0
 17 18  1  0
 18 19  1  0
 19 20  1  0
 20 21  1  0
 21 22  1  0
 22 23  1  0
 23 24  2  0
 23 25  1  0
  1 26  1  0
  1 27  1  0
  2 28  1  0
  2 29  1  0
  3 30  1  0
  3 31  1  0
  4 32  1  0
  4 33  1  0
  5 34  1  0
  5 35  1  0
  6 36  1  0
  6 37  1  0
  9 38  1  0
 10 39  1  0
 10 40  1  0
 11 41  1  0
 11 42  1  0
 12 43  1  0
 12 44  1  0
 13 45  1  0
 13 46  1  0
 14 47  1  0
 14 48  1  0
 17 49  1  0
 18 50  1  0
 18 51  1  0
 19 52  1  0
 19 53  1  0
 20 54  1  0
 20 55  1  0
 21 56  1  0
 21 57  1  0
 22 58  1  0
 22 59  1  0
 25 60  1  0
 25 61  1  0
M  END
