
     RDKit          3D

 75 74  0  0  0  0  0  0  0  0999 V2000
    3.3590    4.1910   -3.0749 O   0  0  0  0  0  0  0  0  0  0  0  0
    2.0032    3.9367   -3.2719 C   0  0  0  0  0  0  0  0  0  0  0  0
    1.2250    4.5956   -2.1365 C   0  0  0  0  0  0  0  0  0  0  0  0
    1.7106    3.9879   -0.8614 C   0  0  0  0  0  0  0  0  0  0  0  0
    1.0431    4.5283    0.3758 C   0  0  0  0  0  0  0  0  0  0  0  0
   -0.3358    4.3148    0.3595 O   0  0  0  0  0  0  0  0  0  0  0  0
   -0.9842    3.1114    0.2745 C   0  0  0  0  0  0  0  0  0  0  0  0
   -0.2707    2.0650    0.1961 O   0  0  0  0  0  0  0  0  0  0  0  0
   -2.4669    3.0805    0.2777 C   0  0  0  0  0  0  0  0  0  0  0  0
   -2.9861    1.6672    0.1491 C   0  0  0  0  0  0  0  0  0  0  0  0
   -2.4944    0.8147    1.2970 C   0  0  0  0  0  0  0  0  0  0  0  0
   -2.8326   -0.3793    1.2509 O   0  0  0  0  0  0  0  0  0  0  0  0
   -1.7457    1.4188    2.2498 O   0  0  0  0  0  0  0  0  0  0  0  0
   -1.1578    0.8812    3.3682 C   0  0  0  0  0  0  0  0  0  0  0  0
    0.0584    0.0053    3.1605 C   0  0  0  0  0  0  0  0  0  0  0  0
   -0.1101   -1.1928    2.3351 C   0  0  0  0  0  0  0  0  0  0  0  0
    1.0340   -2.1500    2.1950 C   0  0  0  0  0  0  0  0  0  0  0  0
    2.2311   -1.7294    1.6788 O   0  0  0  0  0  0  0  0  0  0  0  0
    3.2010   -0.8984    2.1414 C   0  0  0  0  0  0  0  0  0  0  0  0
    3.0159   -0.3865    3.3083 O   0  0  0  0  0  0  0  0  0  0  0  0
    4.4379   -0.5120    1.4669 C   0  0  0  0  0  0  0  0  0  0  0  0
    4.3525    0.2222    0.1956 C   0  0  0  0  0  0  0  0  0  0  0  0
    3.7647   -0.4138   -0.9618 C   0  0  0  0  0  0  0  0  0  0  0  0
    4.4168   -1.3917   -1.4866 O   0  0  0  0  0  0  0  0  0  0  0  0
    2.5738   -0.1097   -1.6067 O   0  0  0  0  0  0  0  0  0  0  0  0
    2.1435   -0.8055   -2.7555 C   0  0  0  0  0  0  0  0  0  0  0  0
    1.9237   -2.2540   -2.6385 C   0  0  0  0  0  0  0  0  0  0  0  0
    0.8651   -2.7302   -1.7064 C   0  0  0  0  0  0  0  0  0  0  0  0
   -0.5103   -2.2123   -2.1086 C   0  0  0  0  0  0  0  0  0  0  0  0
   -1.5040   -2.6875   -1.2527 O   0  0  0  0  0  0  0  0  0  0  0  0
   -2.8567   -2.3817   -1.4015 C   0  0  0  0  0  0  0  0  0  0  0  0
   -3.1656   -1.6261   -2.3725 O   0  0  0  0  0  0  0  0  0  0  0  0
   -3.8739   -2.9073   -0.4822 C   0  0  0  0  0  0  0  0  0  0  0  0
   -3.2801   -3.7687    0.6088 C   0  0  0  0  0  0  0  0  0  0  0  0
   -2.5660   -4.9385    0.0683 C   0  0  0  0  0  0  0  0  0  0  0  0
   -2.4678   -5.1773   -1.1826 O   0  0  0  0  0  0  0  0  0  0  0  0
   -1.9804   -5.8072    0.9940 O   0  0  0  0  0  0  0  0  0  0  0  0
    3.8910    3.3747   -3.2591 H   0  0  0  0  0  0  0  0  0  0  0  0
    1.6235    4.3265   -4.2381 H   0  0  0  0  0  0  0  0  0  0  0  0
    1.8660    2.8419   -3.2451 H   0  0  0  0  0  0  0  0  0  0  0  0
    1.4367    5.6809   -2.1595 H   0  0  0  0  0  0  0  0  0  0  0  0
    0.1297    4.4034   -2.2774 H   0  0  0  0  0  0  0  0  0  0  0  0
    1.6077    2.8891   -0.9283 H   0  0  0  0  0  0  0  0  0  0  0  0
    2.8219    4.1666   -0.8019 H   0  0  0  0  0  0  0  0  0  0  0  0
    1.5234    4.0577    1.2623 H   0  0  0  0  0  0  0  0  0  0  0  0
    1.2511    5.6289    0.3835 H   0  0  0  0  0  0  0  0  0  0  0  0
   -2.8141    3.6664   -0.5967 H   0  0  0  0  0  0  0  0  0  0  0  0
   -2.8533    3.5696    1.1926 H   0  0  0  0  0  0  0  0  0  0  0  0
   -2.6098    1.1805   -0.7645 H   0  0  0  0  0  0  0  0  0  0  0  0
   -4.0904    1.6332    0.2373 H   0  0  0  0  0  0  0  0  0  0  0  0
   -1.9452    0.2135    3.8686 H   0  0  0  0  0  0  0  0  0  0  0  0
   -0.9413    1.6638    4.1512 H   0  0  0  0  0  0  0  0  0  0  0  0
    0.8446    0.7185    2.7074 H   0  0  0  0  0  0  0  0  0  0  0  0
    0.4502   -0.2080    4.1801 H   0  0  0  0  0  0  0  0  0  0  0  0
   -0.3404   -0.9263    1.2434 H   0  0  0  0  0  0  0  0  0  0  0  0
   -1.0078   -1.7435    2.6970 H   0  0  0  0  0  0  0  0  0  0  0  0
    1.2359   -2.5275    3.2591 H   0  0  0  0  0  0  0  0  0  0  0  0
    0.7087   -3.0988    1.6856 H   0  0  0  0  0  0  0  0  0  0  0  0
    5.0910    0.0287    2.2145 H   0  0  0  0  0  0  0  0  0  0  0  0
    5.0155   -1.4855    1.3306 H   0  0  0  0  0  0  0  0  0  0  0  0
    5.4102    0.5567   -0.0573 H   0  0  0  0  0  0  0  0  0  0  0  0
    3.8667    1.2250    0.4359 H   0  0  0  0  0  0  0  0  0  0  0  0
    2.8011   -0.6218   -3.6315 H   0  0  0  0  0  0  0  0  0  0  0  0
    1.1680   -0.3362   -3.0388 H   0  0  0  0  0  0  0  0  0  0  0  0
    1.6094   -2.6158   -3.6696 H   0  0  0  0  0  0  0  0  0  0  0  0
    2.8811   -2.8399   -2.4798 H   0  0  0  0  0  0  0  0  0  0  0  0
    1.0882   -2.5674   -0.6571 H   0  0  0  0  0  0  0  0  0  0  0  0
    0.8031   -3.8490   -1.8460 H   0  0  0  0  0  0  0  0  0  0  0  0
   -0.6973   -2.6388   -3.1230 H   0  0  0  0  0  0  0  0  0  0  0  0
   -0.5196   -1.1109   -2.2093 H   0  0  0  0  0  0  0  0  0  0  0  0
   -4.6071   -3.5712   -1.0170 H   0  0  0  0  0  0  0  0  0  0  0  0
   -4.4863   -2.0729   -0.1077 H   0  0  0  0  0  0  0  0  0  0  0  0
   -4.0520   -4.1380    1.3125 H   0  0  0  0  0  0  0  0  0  0  0  0
   -2.6121   -3.1127    1.2118 H   0  0  0  0  0  0  0  0  0  0  0  0
   -1.8584   -6.7933    0.7436 H   0  0  0  0  0  0  0  0  0  0  0  0
  1  2  1  0
  2  3  1  0
  3  4  1  0
  4  5  1  0
  5  6  1  0
  6  7  1  0
  7  8  2  0
  7  9  1  0
  9 10  1  0
 10 11  1  0
 11 12  2  0
 11 13  1  0
 13 14  1  0
 14 15  1  0
 15 16  1  0
 16 17  1  0
 17 18  1  0
 18 19  1  0
 19 20  2  0
 19 21  1  0
 21 22  1  0
 22 23  1  0
 23 24  2  0
 23 25  1  0
 25 26  1  0
 26 27  1  0
 27 28  1  0
 28 29  1  0
 29 30  1  0
 30 31  1  0
 31 32  2  0
 31 33  1  0
 33 34  1  0
 34 35  1  0
 35 36  2  0
 35 37  1  0
  1 38  1  0
  2 39  1  0
  2 40  1  0
  3 41  1  0
  3 42  1  0
  4 43  1  0
  4 44  1  0
  5 45  1  0
  5 46  1  0
  9 47  1  0
  9 48  1  0
 10 49  1  0
 10 50  1  0
 14 51  1  0
 14 52  1  0
 15 53  1  0
 15 54  1  0
 16 55  1  0
 16 56  1  0
 17 57  1  0
 17 58  1  0
 21 59  1  0
 21 60  1  0
 22 61  1  0
 22 62  1  0
 26 63  1  0
 26 64  1  0
 27 65  1  0
 27 66  1  0
 28 67  1  0
 28 68  1  0
 29 69  1  0
 29 70  1  0
 33 71  1  0
 33 72  1  0
 34 73  1  0
 34 74  1  0
 37 75  1  0
M  END
