
     RDKit          3D

213215  0  0  0  0  0  0  0  0999 V2000
    4.0616   -3.1361   -0.5555 O   0  0  0  0  0  0  0  0  0  0  0  0
    4.9723   -3.5316   -1.4969 C   0  0  0  0  0  0  0  0  0  0  0  0
    5.6186   -2.4502   -2.2918 C   0  0  0  0  0  0  0  0  0  0  0  0
    4.6330   -1.6717   -3.0862 C   0  0  0  0  0  0  0  0  0  0  0  0
    3.5471   -0.9793   -2.3192 C   0  0  0  0  0  0  0  0  0  0  0  0
    2.7337   -0.2434   -3.2587 O   0  0  0  0  0  0  0  0  0  0  0  0
    3.2114    0.8023   -4.0203 C   0  0  0  0  0  0  0  0  0  0  0  0
    4.4274    1.1861   -3.9324 O   0  0  0  0  0  0  0  0  0  0  0  0
    2.2962    1.4935   -4.9573 C   0  0  0  0  0  0  0  0  0  0  0  0
    0.9855    1.1322   -5.1176 C   0  0  0  0  0  0  0  0  0  0  0  0
    0.1731    1.8479   -6.0101 C   0  0  0  0  0  0  0  0  0  0  0  0
    0.6752    2.9064   -6.7245 C   0  0  0  0  0  0  0  0  0  0  0  0
    2.0022    3.2288   -6.5265 C   0  0  0  0  0  0  0  0  0  0  0  0
    2.8327    2.5548   -5.6628 C   0  0  0  0  0  0  0  0  0  0  0  0
   -0.0705    3.7154   -7.6621 C   0  0  0  0  0  0  0  0  0  0  0  0
    0.4929    4.6923   -8.2555 O   0  0  0  0  0  0  0  0  0  0  0  0
   -1.4152    3.5175   -7.9928 O   0  0  0  0  0  0  0  0  0  0  0  0
   -2.0218    4.4335   -8.9369 C   0  0  0  0  0  0  0  0  0  0  0  0
   -2.1062    5.7852   -8.2686 C   0  0  0  0  0  0  0  0  0  0  0  0
   -3.0351    5.8202   -7.1076 C   0  0  0  0  0  0  0  0  0  0  0  0
   -2.8452    4.9132   -5.9788 C   0  0  0  0  0  0  0  0  0  0  0  0
   -1.6898    4.9355   -5.2240 O   0  0  0  0  0  0  0  0  0  0  0  0
   -1.1257    5.9420   -4.4983 C   0  0  0  0  0  0  0  0  0  0  0  0
   -1.6788    7.0650   -4.4883 O   0  0  0  0  0  0  0  0  0  0  0  0
    0.1230    5.6184   -3.7521 C   0  0  0  0  0  0  0  0  0  0  0  0
    0.6452    6.7753   -2.9377 C   0  0  0  0  0  0  0  0  0  0  0  0
    1.8387    6.2977   -2.1368 C   0  0  0  0  0  0  0  0  0  0  0  0
    2.4373    7.3855   -1.2657 C   0  0  0  0  0  0  0  0  0  0  0  0
    3.5347    6.7804   -0.4341 C   0  0  0  0  0  0  0  0  0  0  0  0
    4.2070    7.7288    0.5082 C   0  0  0  0  0  0  0  0  0  0  0  0
    3.2016    8.3839    1.4418 C   0  0  0  0  0  0  0  0  0  0  0  0
    2.3762    7.4314    2.2053 C   0  0  0  0  0  0  0  0  0  0  0  0
    3.0757    6.4999    3.1126 C   0  0  0  0  0  0  0  0  0  0  0  0
    4.2937    6.5102    3.3793 O   0  0  0  0  0  0  0  0  0  0  0  0
    2.2891    5.5427    3.7017 O   0  0  0  0  0  0  0  0  0  0  0  0
    2.5933    4.5342    4.5866 C   0  0  0  0  0  0  0  0  0  0  0  0
    1.3339    3.7037    4.8651 C   0  0  0  0  0  0  0  0  0  0  0  0
    0.2447    4.5960    5.4394 C   0  0  0  0  0  0  0  0  0  0  0  0
   -0.9909    3.6961    5.6191 C   0  0  0  0  0  0  0  0  0  0  0  0
   -1.2900    3.1995    4.3391 O   0  0  0  0  0  0  0  0  0  0  0  0
   -2.3120    2.3694    3.9775 C   0  0  0  0  0  0  0  0  0  0  0  0
   -3.1141    1.9807    4.8330 O   0  0  0  0  0  0  0  0  0  0  0  0
   -2.3866    1.9805    2.5500 C   0  0  0  0  0  0  0  0  0  0  0  0
   -3.3637    1.1107    2.0973 C   0  0  0  0  0  0  0  0  0  0  0  0
   -3.3966    0.7123    0.7614 C   0  0  0  0  0  0  0  0  0  0  0  0
   -2.4620    1.1736   -0.1295 C   0  0  0  0  0  0  0  0  0  0  0  0
   -1.4825    2.0567    0.3519 C   0  0  0  0  0  0  0  0  0  0  0  0
   -1.4596    2.4396    1.6565 C   0  0  0  0  0  0  0  0  0  0  0  0
   -2.3641    0.8077   -1.5196 C   0  0  0  0  0  0  0  0  0  0  0  0
   -1.4371    1.2255   -2.2907 O   0  0  0  0  0  0  0  0  0  0  0  0
   -3.2860   -0.0522   -2.1645 O   0  0  0  0  0  0  0  0  0  0  0  0
   -3.0180   -0.3242   -3.5297 C   0  0  0  0  0  0  0  0  0  0  0  0
   -4.0458   -1.1569   -4.2204 C   0  0  0  0  0  0  0  0  0  0  0  0
   -3.6265   -1.4222   -5.6650 C   0  0  0  0  0  0  0  0  0  0  0  0
   -2.3418   -2.2408   -5.6873 C   0  0  0  0  0  0  0  0  0  0  0  0
   -2.5443   -3.4984   -5.1215 O   0  0  0  0  0  0  0  0  0  0  0  0
   -1.6542   -4.5199   -4.9017 C   0  0  0  0  0  0  0  0  0  0  0  0
   -0.4575   -4.3302   -5.2241 O   0  0  0  0  0  0  0  0  0  0  0  0
   -2.1930   -5.7606   -4.3067 C   0  0  0  0  0  0  0  0  0  0  0  0
   -2.1910   -5.8599   -2.8389 C   0  0  0  0  0  0  0  0  0  0  0  0
   -0.8210   -5.8684   -2.1642 C   0  0  0  0  0  0  0  0  0  0  0  0
   -1.0177   -5.9403   -0.6728 C   0  0  0  0  0  0  0  0  0  0  0  0
    0.1999   -6.0221    0.1633 C   0  0  0  0  0  0  0  0  0  0  0  0
    0.9898   -7.2908   -0.0987 C   0  0  0  0  0  0  0  0  0  0  0  0
    2.1872   -7.3520    0.8363 C   0  0  0  0  0  0  0  0  0  0  0  0
    3.1836   -6.2660    0.6356 C   0  0  0  0  0  0  0  0  0  0  0  0
    4.2706   -6.3380    1.6927 C   0  0  0  0  0  0  0  0  0  0  0  0
    3.9433   -7.0184    2.7044 O   0  0  0  0  0  0  0  0  0  0  0  0
    5.4407   -5.7624    1.6019 O   0  0  0  0  0  0  0  0  0  0  0  0
    6.6132   -5.5438    2.2490 C   0  0  0  0  0  0  0  0  0  0  0  0
    7.4235   -6.6334    2.8194 C   0  0  0  0  0  0  0  0  0  0  0  0
    6.9252   -7.4139    3.9603 C   0  0  0  0  0  0  0  0  0  0  0  0
    6.7030   -6.6221    5.2215 C   0  0  0  0  0  0  0  0  0  0  0  0
    5.8388   -5.5651    5.0854 O   0  0  0  0  0  0  0  0  0  0  0  0
    5.4463   -4.6200    6.0100 C   0  0  0  0  0  0  0  0  0  0  0  0
    5.9118   -4.6955    7.1730 O   0  0  0  0  0  0  0  0  0  0  0  0
    4.5200   -3.5750    5.5821 C   0  0  0  0  0  0  0  0  0  0  0  0
    3.9970   -3.6402    4.3109 C   0  0  0  0  0  0  0  0  0  0  0  0
    3.1812   -2.6878    3.7734 C   0  0  0  0  0  0  0  0  0  0  0  0
    2.8335   -1.5755    4.5104 C   0  0  0  0  0  0  0  0  0  0  0  0
    3.3374   -1.4862    5.7816 C   0  0  0  0  0  0  0  0  0  0  0  0
    4.1775   -2.4721    6.3312 C   0  0  0  0  0  0  0  0  0  0  0  0
    1.9945   -0.5796    3.8594 C   0  0  0  0  0  0  0  0  0  0  0  0
    1.6839    0.5282    4.3641 O   0  0  0  0  0  0  0  0  0  0  0  0
    1.5108   -0.8697    2.6051 O   0  0  0  0  0  0  0  0  0  0  0  0
    0.7378   -0.1228    1.7370 C   0  0  0  0  0  0  0  0  0  0  0  0
    0.4126   -1.0157    0.5477 C   0  0  0  0  0  0  0  0  0  0  0  0
   -0.5569   -2.0608    0.9807 C   0  0  0  0  0  0  0  0  0  0  0  0
   -0.2268   -2.9283    2.1258 C   0  0  0  0  0  0  0  0  0  0  0  0
   -1.2601   -3.8962    2.4332 O   0  0  0  0  0  0  0  0  0  0  0  0
   -2.5327   -3.4670    2.7642 C   0  0  0  0  0  0  0  0  0  0  0  0
   -2.7881   -2.2530    2.7983 O   0  0  0  0  0  0  0  0  0  0  0  0
   -3.5820   -4.4370    3.0718 C   0  0  0  0  0  0  0  0  0  0  0  0
   -4.9086   -3.7905    3.2305 C   0  0  0  0  0  0  0  0  0  0  0  0
   -5.0269   -2.7963    4.3180 C   0  0  0  0  0  0  0  0  0  0  0  0
   -6.4436   -2.2195    4.3627 C   0  0  0  0  0  0  0  0  0  0  0  0
   -6.8262   -1.5502    3.0792 C   0  0  0  0  0  0  0  0  0  0  0  0
   -8.2415   -0.9736    3.1418 C   0  0  0  0  0  0  0  0  0  0  0  0
   -8.5736   -0.3232    1.8143 C   0  0  0  0  0  0  0  0  0  0  0  0
   -9.9406    0.2769    1.7554 C   0  0  0  0  0  0  0  0  0  0  0  0
  -10.1834    0.9031    0.4055 C   0  0  0  0  0  0  0  0  0  0  0  0
  -11.2703    1.4956    0.1462 O   0  0  0  0  0  0  0  0  0  0  0  0
   -9.2301    0.8515   -0.5868 O   0  0  0  0  0  0  0  0  0  0  0  0
    4.5030   -2.8910    0.2964 H   0  0  0  0  0  0  0  0  0  0  0  0
    4.4038   -4.1655   -2.2369 H   0  0  0  0  0  0  0  0  0  0  0  0
    5.7801   -4.1689   -1.0517 H   0  0  0  0  0  0  0  0  0  0  0  0
    6.2982   -1.8064   -1.6857 H   0  0  0  0  0  0  0  0  0  0  0  0
    6.2733   -2.9783   -3.0516 H   0  0  0  0  0  0  0  0  0  0  0  0
    4.1863   -2.4062   -3.8298 H   0  0  0  0  0  0  0  0  0  0  0  0
    5.1557   -0.9360   -3.7639 H   0  0  0  0  0  0  0  0  0  0  0  0
    2.8792   -1.6846   -1.7662 H   0  0  0  0  0  0  0  0  0  0  0  0
    3.9834   -0.3009   -1.5618 H   0  0  0  0  0  0  0  0  0  0  0  0
    0.5786    0.2988   -4.5626 H   0  0  0  0  0  0  0  0  0  0  0  0
   -0.8684    1.5876   -6.1619 H   0  0  0  0  0  0  0  0  0  0  0  0
    2.4518    4.0569   -7.0682 H   0  0  0  0  0  0  0  0  0  0  0  0
    3.8657    2.8662   -5.5587 H   0  0  0  0  0  0  0  0  0  0  0  0
   -3.0116    4.0425   -9.2222 H   0  0  0  0  0  0  0  0  0  0  0  0
   -1.2976    4.4544   -9.7763 H   0  0  0  0  0  0  0  0  0  0  0  0
   -1.1394    6.1925   -7.9309 H   0  0  0  0  0  0  0  0  0  0  0  0
   -2.4280    6.5256   -9.0721 H   0  0  0  0  0  0  0  0  0  0  0  0
   -3.1915    6.8920   -6.7595 H   0  0  0  0  0  0  0  0  0  0  0  0
   -4.0614    5.5726   -7.5530 H   0  0  0  0  0  0  0  0  0  0  0  0
   -2.9696    3.8225   -6.3099 H   0  0  0  0  0  0  0  0  0  0  0  0
   -3.7591    5.0328   -5.3058 H   0  0  0  0  0  0  0  0  0  0  0  0
   -0.1722    4.8213   -3.0141 H   0  0  0  0  0  0  0  0  0  0  0  0
    0.8963    5.2041   -4.3989 H   0  0  0  0  0  0  0  0  0  0  0  0
   -0.1305    7.0775   -2.1734 H   0  0  0  0  0  0  0  0  0  0  0  0
    0.9250    7.6424   -3.5452 H   0  0  0  0  0  0  0  0  0  0  0  0
    1.5406    5.4843   -1.4194 H   0  0  0  0  0  0  0  0  0  0  0  0
    2.6577    5.8852   -2.7585 H   0  0  0  0  0  0  0  0  0  0  0  0
    2.8744    8.1348   -1.9634 H   0  0  0  0  0  0  0  0  0  0  0  0
    1.6888    7.8356   -0.5891 H   0  0  0  0  0  0  0  0  0  0  0  0
    3.1974    5.8607    0.0966 H   0  0  0  0  0  0  0  0  0  0  0  0
    4.3222    6.4120   -1.1423 H   0  0  0  0  0  0  0  0  0  0  0  0
    4.9303    7.1442    1.1035 H   0  0  0  0  0  0  0  0  0  0  0  0
    4.7409    8.5101   -0.0442 H   0  0  0  0  0  0  0  0  0  0  0  0
    2.6286    9.1563    0.9294 H   0  0  0  0  0  0  0  0  0  0  0  0
    3.8485    8.9332    2.1950 H   0  0  0  0  0  0  0  0  0  0  0  0
    1.6499    6.8574    1.5709 H   0  0  0  0  0  0  0  0  0  0  0  0
    1.6858    8.0500    2.8600 H   0  0  0  0  0  0  0  0  0  0  0  0
    2.9475    4.9249    5.5497 H   0  0  0  0  0  0  0  0  0  0  0  0
    3.3706    3.8293    4.2244 H   0  0  0  0  0  0  0  0  0  0  0  0
    1.5998    2.9669    5.6366 H   0  0  0  0  0  0  0  0  0  0  0  0
    0.9847    3.2082    3.9517 H   0  0  0  0  0  0  0  0  0  0  0  0
    0.5492    5.0124    6.4083 H   0  0  0  0  0  0  0  0  0  0  0  0
    0.0268    5.3815    4.7192 H   0  0  0  0  0  0  0  0  0  0  0  0
   -0.6409    2.8704    6.3015 H   0  0  0  0  0  0  0  0  0  0  0  0
   -1.8061    4.2071    6.1310 H   0  0  0  0  0  0  0  0  0  0  0  0
   -4.1159    0.7238    2.7586 H   0  0  0  0  0  0  0  0  0  0  0  0
   -4.1532    0.0309    0.3809 H   0  0  0  0  0  0  0  0  0  0  0  0
   -0.7247    2.4371   -0.3296 H   0  0  0  0  0  0  0  0  0  0  0  0
   -0.6764    3.1352    1.9927 H   0  0  0  0  0  0  0  0  0  0  0  0
   -2.9282    0.6958   -4.0054 H   0  0  0  0  0  0  0  0  0  0  0  0
   -2.0511   -0.8565   -3.5504 H   0  0  0  0  0  0  0  0  0  0  0  0
   -4.1337   -2.1337   -3.7122 H   0  0  0  0  0  0  0  0  0  0  0  0
   -5.0494   -0.6891   -4.2387 H   0  0  0  0  0  0  0  0  0  0  0  0
   -3.4852   -0.4497   -6.1647 H   0  0  0  0  0  0  0  0  0  0  0  0
   -4.3945   -1.9896   -6.2075 H   0  0  0  0  0  0  0  0  0  0  0  0
   -1.4827   -1.7156   -5.2879 H   0  0  0  0  0  0  0  0  0  0  0  0
   -2.1530   -2.4312   -6.7881 H   0  0  0  0  0  0  0  0  0  0  0  0
   -1.5664   -6.6083   -4.7334 H   0  0  0  0  0  0  0  0  0  0  0  0
   -3.2424   -5.9649   -4.6895 H   0  0  0  0  0  0  0  0  0  0  0  0
   -2.8459   -5.0820   -2.3612 H   0  0  0  0  0  0  0  0  0  0  0  0
   -2.6619   -6.8298   -2.5225 H   0  0  0  0  0  0  0  0  0  0  0  0
   -0.2821   -4.9749   -2.4919 H   0  0  0  0  0  0  0  0  0  0  0  0
   -0.2740   -6.7533   -2.5509 H   0  0  0  0  0  0  0  0  0  0  0  0
   -1.5502   -4.9707   -0.4054 H   0  0  0  0  0  0  0  0  0  0  0  0
   -1.7214   -6.7794   -0.4031 H   0  0  0  0  0  0  0  0  0  0  0  0
    0.8072   -5.1052   -0.0426 H   0  0  0  0  0  0  0  0  0  0  0  0
   -0.0785   -6.0023    1.2421 H   0  0  0  0  0  0  0  0  0  0  0  0
    0.3378   -8.1474    0.1571 H   0  0  0  0  0  0  0  0  0  0  0  0
    1.2796   -7.3727   -1.1535 H   0  0  0  0  0  0  0  0  0  0  0  0
    2.6690   -8.3424    0.6733 H   0  0  0  0  0  0  0  0  0  0  0  0
    1.7926   -7.3551    1.8730 H   0  0  0  0  0  0  0  0  0  0  0  0
    3.6025   -6.1662   -0.3710 H   0  0  0  0  0  0  0  0  0  0  0  0
    2.6838   -5.2789    0.8771 H   0  0  0  0  0  0  0  0  0  0  0  0
    6.4951   -4.6778    2.9726 H   0  0  0  0  0  0  0  0  0  0  0  0
    7.2927   -5.0506    1.4601 H   0  0  0  0  0  0  0  0  0  0  0  0
    7.6382   -7.3565    1.9741 H   0  0  0  0  0  0  0  0  0  0  0  0
    8.4642   -6.2709    3.0839 H   0  0  0  0  0  0  0  0  0  0  0  0
    7.7280   -8.1774    4.2646 H   0  0  0  0  0  0  0  0  0  0  0  0
    6.0563   -8.0397    3.7754 H   0  0  0  0  0  0  0  0  0  0  0  0
    6.4705   -7.3689    6.0096 H   0  0  0  0  0  0  0  0  0  0  0  0
    7.7011   -6.2037    5.5178 H   0  0  0  0  0  0  0  0  0  0  0  0
    4.2466   -4.4914    3.7186 H   0  0  0  0  0  0  0  0  0  0  0  0
    2.8292   -2.8480    2.7493 H   0  0  0  0  0  0  0  0  0  0  0  0
    3.0676   -0.6183    6.3600 H   0  0  0  0  0  0  0  0  0  0  0  0
    4.5723   -2.4064    7.3181 H   0  0  0  0  0  0  0  0  0  0  0  0
   -0.2677   -0.0160    2.2665 H   0  0  0  0  0  0  0  0  0  0  0  0
    1.0817    0.8677    1.4628 H   0  0  0  0  0  0  0  0  0  0  0  0
    1.3350   -1.4478    0.0996 H   0  0  0  0  0  0  0  0  0  0  0  0
   -0.0551   -0.4044   -0.2372 H   0  0  0  0  0  0  0  0  0  0  0  0
   -1.5163   -1.4989    1.1956 H   0  0  0  0  0  0  0  0  0  0  0  0
   -0.7751   -2.6704    0.0482 H   0  0  0  0  0  0  0  0  0  0  0  0
   -0.1071   -2.3450    3.0852 H   0  0  0  0  0  0  0  0  0  0  0  0
    0.6813   -3.5383    2.0102 H   0  0  0  0  0  0  0  0  0  0  0  0
   -3.6686   -5.1559    2.2047 H   0  0  0  0  0  0  0  0  0  0  0  0
   -3.2963   -5.0592    3.9521 H   0  0  0  0  0  0  0  0  0  0  0  0
   -5.6528   -4.6135    3.4023 H   0  0  0  0  0  0  0  0  0  0  0  0
   -5.1770   -3.3546    2.2320 H   0  0  0  0  0  0  0  0  0  0  0  0
   -4.9032   -3.3165    5.3012 H   0  0  0  0  0  0  0  0  0  0  0  0
   -4.3281   -1.9760    4.3122 H   0  0  0  0  0  0  0  0  0  0  0  0
   -6.4878   -1.4741    5.1649 H   0  0  0  0  0  0  0  0  0  0  0  0
   -7.1206   -3.0498    4.6227 H   0  0  0  0  0  0  0  0  0  0  0  0
   -6.9047   -2.3570    2.2902 H   0  0  0  0  0  0  0  0  0  0  0  0
   -6.0810   -0.8098    2.7436 H   0  0  0  0  0  0  0  0  0  0  0  0
   -8.9256   -1.7873    3.3895 H   0  0  0  0  0  0  0  0  0  0  0  0
   -8.2412   -0.2473    3.9698 H   0  0  0  0  0  0  0  0  0  0  0  0
   -7.8248    0.4771    1.6139 H   0  0  0  0  0  0  0  0  0  0  0  0
   -8.4934   -1.0524    0.9779 H   0  0  0  0  0  0  0  0  0  0  0  0
  -10.1081    1.0926    2.4856 H   0  0  0  0  0  0  0  0  0  0  0  0
  -10.7517   -0.4642    1.8824 H   0  0  0  0  0  0  0  0  0  0  0  0
   -9.1963    1.4731   -1.4024 H   0  0  0  0  0  0  0  0  0  0  0  0
  1  2  1  0
  2  3  1  0
  3  4  1  0
  4  5  1  0
  5  6  1  0
  6  7  1  0
  7  8  2  0
  7  9  1  0
  9 10  2  0
 10 11  1  0
 11 12  2  0
 12 13  1  0
 13 14  2  0
 12 15  1  0
 15 16  2  0
 15 17  1  0
 17 18  1  0
 18 19  1  0
 19 20  1  0
 20 21  1  0
 21 22  1  0
 22 23  1  0
 23 24  2  0
 23 25  1  0
 25 26  1  0
 26 27  1  0
 27 28  1  0
 28 29  1  0
 29 30  1  0
 30 31  1  0
 31 32  1  0
 32 33  1  0
 33 34  2  0
 33 35  1  0
 35 36  1  0
 36 37  1  0
 37 38  1  0
 38 39  1  0
 39 40  1  0
 40 41  1  0
 41 42  2  0
 41 43  1  0
 43 44  2  0
 44 45  1  0
 45 46  2  0
 46 47  1  0
 47 48  2  0
 46 49  1  0
 49 50  2  0
 49 51  1  0
 51 52  1  0
 52 53  1  0
 53 54  1  0
 54 55  1  0
 55 56  1  0
 56 57  1  0
 57 58  2  0
 57 59  1  0
 59 60  1  0
 60 61  1  0
 61 62  1  0
 62 63  1  0
 63 64  1  0
 64 65  1  0
 65 66  1  0
 66 67  1  0
 67 68  2  0
 67 69  1  0
 69 70  1  0
 70 71  1  0
 71 72  1  0
 72 73  1  0
 73 74  1  0
 74 75  1  0
 75 76  2  0
 75 77  1  0
 77 78  2  0
 78 79  1  0
 79 80  2  0
 80 81  1  0
 81 82  2  0
 80 83  1  0
 83 84  2  0
 83 85  1  0
 85 86  1  0
 86 87  1  0
 87 88  1  0
 88 89  1  0
 89 90  1  0
 90 91  1  0
 91 92  2  0
 91 93  1  0
 93 94  1  0
 94 95  1  0
 95 96  1  0
 96 97  1  0
 97 98  1  0
 98 99  1  0
 99100  1  0
100101  1  0
101102  2  0
101103  1  0
 14  9  1  0
 48 43  1  0
 82 77  1  0
  1104  1  0
  2105  1  0
  2106  1  0
  3107  1  0
  3108  1  0
  4109  1  0
  4110  1  0
  5111  1  0
  5112  1  0
 10113  1  0
 11114  1  0
 13115  1  0
 14116  1  0
 18117  1  0
 18118  1  0
 19119  1  0
 19120  1  0
 20121  1  0
 20122  1  0
 21123  1  0
 21124  1  0
 25125  1  0
 25126  1  0
 26127  1  0
 26128  1  0
 27129  1  0
 27130  1  0
 28131  1  0
 28132  1  0
 29133  1  0
 29134  1  0
 30135  1  0
 30136  1  0
 31137  1  0
 31138  1  0
 32139  1  0
 32140  1  0
 36141  1  0
 36142  1  0
 37143  1  0
 37144  1  0
 38145  1  0
 38146  1  0
 39147  1  0
 39148  1  0
 44149  1  0
 45150  1  0
 47151  1  0
 48152  1  0
 52153  1  0
 52154  1  0
 53155  1  0
 53156  1  0
 54157  1  0
 54158  1  0
 55159  1  0
 55160  1  0
 59161  1  0
 59162  1  0
 60163  1  0
 60164  1  0
 61165  1  0
 61166  1  0
 62167  1  0
 62168  1  0
 63169  1  0
 63170  1  0
 64171  1  0
 64172  1  0
 65173  1  0
 65174  1  0
 66175  1  0
 66176  1  0
 70177  1  0
 70178  1  0
 71179  1  0
 71180  1  0
 72181  1  0
 72182  1  0
 73183  1  0
 73184  1  0
 78185  1  0
 79186  1  0
 81187  1  0
 82188  1  0
 86189  1  0
 86190  1  0
 87191  1  0
 87192  1  0
 88193  1  0
 88194  1  0
 89195  1  0
 89196  1  0
 93197  1  0
 93198  1  0
 94199  1  0
 94200  1  0
 95201  1  0
 95202  1  0
 96203  1  0
 96204  1  0
 97205  1  0
 97206  1  0
 98207  1  0
 98208  1  0
 99209  1  0
 99210  1  0
100211  1  0
100212  1  0
103213  1  0
M  END
