
     RDKit          3D

 57 56  0  0  0  0  0  0  0  0999 V2000
    0.0759   -4.4216   -0.0286 O   0  0  0  0  0  0  0  0  0  0  0  0
   -1.0048   -3.6665   -0.5110 C   0  0  0  0  0  0  0  0  0  0  0  0
   -1.3669   -2.6945    0.5663 C   0  0  0  0  0  0  0  0  0  0  0  0
   -2.5332   -1.8041    0.1794 C   0  0  0  0  0  0  0  0  0  0  0  0
   -2.2192   -0.9953   -1.0495 C   0  0  0  0  0  0  0  0  0  0  0  0
   -3.3591   -0.0849   -1.4737 C   0  0  0  0  0  0  0  0  0  0  0  0
   -3.7012    0.8846   -0.4043 C   0  0  0  0  0  0  0  0  0  0  0  0
   -4.4658    0.5036    0.5471 O   0  0  0  0  0  0  0  0  0  0  0  0
   -3.2430    2.1844   -0.3687 O   0  0  0  0  0  0  0  0  0  0  0  0
   -3.5214    3.1284    0.5883 C   0  0  0  0  0  0  0  0  0  0  0  0
   -2.9014    4.4458    0.3976 C   0  0  0  0  0  0  0  0  0  0  0  0
   -1.4690    4.6898    0.4104 C   0  0  0  0  0  0  0  0  0  0  0  0
   -0.4765    4.1679   -0.5092 C   0  0  0  0  0  0  0  0  0  0  0  0
   -0.1806    2.7313   -0.6708 C   0  0  0  0  0  0  0  0  0  0  0  0
    0.9881    2.5703   -1.6658 C   0  0  0  0  0  0  0  0  0  0  0  0
    0.7902    2.7619   -2.8875 O   0  0  0  0  0  0  0  0  0  0  0  0
    2.2374    2.2192   -1.2150 O   0  0  0  0  0  0  0  0  0  0  0  0
    3.3661    2.0397   -1.9888 C   0  0  0  0  0  0  0  0  0  0  0  0
    4.5810    1.6539   -1.1734 C   0  0  0  0  0  0  0  0  0  0  0  0
    4.4283    0.3906   -0.4018 C   0  0  0  0  0  0  0  0  0  0  0  0
    3.3992    0.3191    0.6401 C   0  0  0  0  0  0  0  0  0  0  0  0
    3.4635    1.1489    1.8496 C   0  0  0  0  0  0  0  0  0  0  0  0
    3.4671    2.5923    1.7896 C   0  0  0  0  0  0  0  0  0  0  0  0
    4.5365    3.2923    1.9245 O   0  0  0  0  0  0  0  0  0  0  0  0
    2.3182    3.3839    1.5829 O   0  0  0  0  0  0  0  0  0  0  0  0
    0.7904   -3.8404    0.3353 H   0  0  0  0  0  0  0  0  0  0  0  0
   -0.6188   -3.1575   -1.4158 H   0  0  0  0  0  0  0  0  0  0  0  0
   -1.8191   -4.3479   -0.7801 H   0  0  0  0  0  0  0  0  0  0  0  0
   -0.4604   -2.0427    0.7413 H   0  0  0  0  0  0  0  0  0  0  0  0
   -1.5707   -3.1684    1.5268 H   0  0  0  0  0  0  0  0  0  0  0  0
   -2.8539   -1.1812    1.0229 H   0  0  0  0  0  0  0  0  0  0  0  0
   -3.4041   -2.4750   -0.0462 H   0  0  0  0  0  0  0  0  0  0  0  0
   -1.3704   -0.3061   -0.7652 H   0  0  0  0  0  0  0  0  0  0  0  0
   -1.8474   -1.6060   -1.8823 H   0  0  0  0  0  0  0  0  0  0  0  0
   -4.2380   -0.6519   -1.8145 H   0  0  0  0  0  0  0  0  0  0  0  0
   -2.9850    0.4894   -2.3450 H   0  0  0  0  0  0  0  0  0  0  0  0
   -3.1109    2.6973    1.5695 H   0  0  0  0  0  0  0  0  0  0  0  0
   -4.6212    3.2062    0.8221 H   0  0  0  0  0  0  0  0  0  0  0  0
   -3.4089    5.1249    1.1904 H   0  0  0  0  0  0  0  0  0  0  0  0
   -3.3354    4.8474   -0.5836 H   0  0  0  0  0  0  0  0  0  0  0  0
   -1.3699    5.8517    0.3272 H   0  0  0  0  0  0  0  0  0  0  0  0
   -1.0627    4.5975    1.5031 H   0  0  0  0  0  0  0  0  0  0  0  0
    0.5153    4.7125   -0.3167 H   0  0  0  0  0  0  0  0  0  0  0  0
   -0.7387    4.5651   -1.5490 H   0  0  0  0  0  0  0  0  0  0  0  0
    0.1598    2.3015    0.2902 H   0  0  0  0  0  0  0  0  0  0  0  0
   -0.9473    2.1199   -1.1834 H   0  0  0  0  0  0  0  0  0  0  0  0
    3.6392    2.9877   -2.5293 H   0  0  0  0  0  0  0  0  0  0  0  0
    3.2509    1.2905   -2.8024 H   0  0  0  0  0  0  0  0  0  0  0  0
    4.8684    2.4808   -0.5054 H   0  0  0  0  0  0  0  0  0  0  0  0
    5.4586    1.4892   -1.8764 H   0  0  0  0  0  0  0  0  0  0  0  0
    4.2452   -0.4710   -1.1263 H   0  0  0  0  0  0  0  0  0  0  0  0
    5.4324    0.1792    0.0679 H   0  0  0  0  0  0  0  0  0  0  0  0
    3.3456   -0.7745    1.0016 H   0  0  0  0  0  0  0  0  0  0  0  0
    2.3579    0.4358    0.2106 H   0  0  0  0  0  0  0  0  0  0  0  0
    2.6074    0.7918    2.5284 H   0  0  0  0  0  0  0  0  0  0  0  0
    4.3593    0.8043    2.4542 H   0  0  0  0  0  0  0  0  0  0  0  0
    2.2817    4.2867    2.0216 H   0  0  0  0  0  0  0  0  0  0  0  0
  1  2  1  0
  2  3  1  0
  3  4  1  0
  4  5  1  0
  5  6  1  0
  6  7  1  0
  7  8  2  0
  7  9  1  0
  9 10  1  0
 10 11  1  0
 11 12  1  0
 12 13  1  0
 13 14  1  0
 14 15  1  0
 15 16  2  0
 15 17  1  0
 17 18  1  0
 18 19  1  0
 19 20  1  0
 20 21  1  0
 21 22  1  0
 22 23  1  0
 23 24  2  0
 23 25  1  0
  1 26  1  0
  2 27  1  0
  2 28  1  0
  3 29  1  0
  3 30  1  0
  4 31  1  0
  4 32  1  0
  5 33  1  0
  5 34  1  0
  6 35  1  0
  6 36  1  0
 10 37  1  0
 10 38  1  0
 11 39  1  0
 11 40  1  0
 12 41  1  0
 12 42  1  0
 13 43  1  0
 13 44  1  0
 14 45  1  0
 14 46  1  0
 18 47  1  0
 18 48  1  0
 19 49  1  0
 19 50  1  0
 20 51  1  0
 20 52  1  0
 21 53  1  0
 21 54  1  0
 22 55  1  0
 22 56  1  0
 25 57  1  0
M  END
