
     RDKit          3D

 28 27  0  0  0  0  0  0  0  0999 V2000
    3.0045   -1.2699   -2.0127 N   0  0  0  0  0  0  0  0  0  0  0  0
    1.8706   -1.1505   -1.1264 C   0  0  0  0  0  0  0  0  0  0  0  0
    2.1611   -0.3968    0.1458 C   0  0  0  0  0  0  0  0  0  0  0  0
    0.9307   -0.3680    0.9658 N   0  0  0  0  0  0  0  0  0  0  0  0
   -0.0773    0.4773    0.3565 C   0  0  0  0  0  0  0  0  0  0  0  0
   -1.4275    0.4002    1.0267 C   0  0  0  0  0  0  0  0  0  0  0  0
   -2.3672    1.1736    0.3114 N   0  0  0  0  0  0  0  0  0  0  0  0
   -2.8925    0.7327   -0.9072 C   0  0  0  0  0  0  0  0  0  0  0  0
   -2.1152    0.5915   -2.1424 C   0  0  0  0  0  0  0  0  0  0  0  0
   -1.4846    1.7967   -2.6233 N   0  0  0  0  0  0  0  0  0  0  0  0
    3.8687   -1.6031   -1.5564 H   0  0  0  0  0  0  0  0  0  0  0  0
    2.7090   -1.8958   -2.8228 H   0  0  0  0  0  0  0  0  0  0  0  0
    1.0759   -0.6138   -1.6794 H   0  0  0  0  0  0  0  0  0  0  0  0
    1.5371   -2.1800   -0.8588 H   0  0  0  0  0  0  0  0  0  0  0  0
    2.4911    0.6436   -0.0117 H   0  0  0  0  0  0  0  0  0  0  0  0
    2.9110   -0.9705    0.7505 H   0  0  0  0  0  0  0  0  0  0  0  0
    1.2460    0.0164    1.8956 H   0  0  0  0  0  0  0  0  0  0  0  0
   -0.1190    0.4340   -0.7150 H   0  0  0  0  0  0  0  0  0  0  0  0
    0.3026    1.5495    0.6316 H   0  0  0  0  0  0  0  0  0  0  0  0
   -1.7542   -0.6722    1.1578 H   0  0  0  0  0  0  0  0  0  0  0  0
   -1.3064    0.7417    2.0972 H   0  0  0  0  0  0  0  0  0  0  0  0
   -3.1423    1.5188    0.9238 H   0  0  0  0  0  0  0  0  0  0  0  0
   -3.4823   -0.2494   -0.7633 H   0  0  0  0  0  0  0  0  0  0  0  0
   -3.7514    1.4506   -1.1643 H   0  0  0  0  0  0  0  0  0  0  0  0
   -2.9160    0.3766   -2.9529 H   0  0  0  0  0  0  0  0  0  0  0  0
   -1.4792   -0.3227   -2.2480 H   0  0  0  0  0  0  0  0  0  0  0  0
   -0.6352    1.6096   -3.1983 H   0  0  0  0  0  0  0  0  0  0  0  0
   -1.3945    2.5660   -1.9615 H   0  0  0  0  0  0  0  0  0  0  0  0
  1  2  1  0
  2  3  1  0
  3  4  1  0
  4  5  1  0
  5  6  1  0
  6  7  1  0
  7  8  1  0
  8  9  1  0
  9 10  1  0
  1 11  1  0
  1 12  1  0
  2 13  1  0
  2 14  1  0
  3 15  1  0
  3 16  1  0
  4 17  1  0
  5 18  1  0
  5 19  1  0
  6 20  1  0
  6 21  1  0
  7 22  1  0
  8 23  1  0
  8 24  1  0
  9 25  1  0
  9 26  1  0
 10 27  1  0
 10 28  1  0
M  END
