
     RDKit          3D

 60 62  0  0  0  0  0  0  0  0999 V2000
   -1.5252    3.1163    3.0855 O   0  0  0  0  0  0  0  0  0  0  0  0
   -1.8956    2.9372    1.7529 C   0  0  0  0  0  0  0  0  0  0  0  0
   -0.9969    1.8569    1.1873 C   0  0  0  0  0  0  0  0  0  0  0  0
   -1.2630    1.5762   -0.1514 O   0  0  0  0  0  0  0  0  0  0  0  0
   -1.1921    2.4390   -1.2170 C   0  0  0  0  0  0  0  0  0  0  0  0
   -0.8381    3.6346   -0.9286 O   0  0  0  0  0  0  0  0  0  0  0  0
   -1.4724    2.1361   -2.5998 C   0  0  0  0  0  0  0  0  0  0  0  0
   -1.3969    3.0723   -3.6369 C   0  0  0  0  0  0  0  0  0  0  0  0
   -1.7102    2.5249   -4.7673 O   0  0  0  0  0  0  0  0  0  0  0  0
   -1.9955    1.2702   -4.5672 C   0  0  0  0  0  0  0  0  0  0  0  0
   -1.8589    0.9748   -3.2068 C   0  0  0  0  0  0  0  0  0  0  0  0
   -2.0750   -0.3183   -2.5638 C   0  0  0  0  0  0  0  0  0  0  0  0
   -1.9024   -0.4899   -1.3490 O   0  0  0  0  0  0  0  0  0  0  0  0
   -2.4782   -1.3569   -3.3303 O   0  0  0  0  0  0  0  0  0  0  0  0
   -2.7779   -2.6674   -3.1472 C   0  0  0  0  0  0  0  0  0  0  0  0
   -1.7479   -3.6236   -2.6697 C   0  0  0  0  0  0  0  0  0  0  0  0
   -1.2277   -3.3505   -1.4165 O   0  0  0  0  0  0  0  0  0  0  0  0
   -1.9439   -3.3592   -0.2349 C   0  0  0  0  0  0  0  0  0  0  0  0
   -3.1834   -3.6411   -0.3518 O   0  0  0  0  0  0  0  0  0  0  0  0
   -1.3987   -3.0801    1.0772 C   0  0  0  0  0  0  0  0  0  0  0  0
   -2.1698   -3.0867    2.2467 C   0  0  0  0  0  0  0  0  0  0  0  0
   -1.3992   -2.8002    3.2589 O   0  0  0  0  0  0  0  0  0  0  0  0
   -0.1671   -2.6005    2.8639 C   0  0  0  0  0  0  0  0  0  0  0  0
   -0.1195   -2.7689    1.4763 C   0  0  0  0  0  0  0  0  0  0  0  0
    1.0488   -2.6376    0.6466 C   0  0  0  0  0  0  0  0  0  0  0  0
    1.0966   -2.7721   -0.5894 O   0  0  0  0  0  0  0  0  0  0  0  0
    2.2561   -2.3307    1.2765 O   0  0  0  0  0  0  0  0  0  0  0  0
    3.4353   -2.1923    0.5079 C   0  0  0  0  0  0  0  0  0  0  0  0
    3.3972   -1.1048   -0.5106 C   0  0  0  0  0  0  0  0  0  0  0  0
    3.1888    0.1790    0.0959 O   0  0  0  0  0  0  0  0  0  0  0  0
    3.1208    1.3015   -0.7001 C   0  0  0  0  0  0  0  0  0  0  0  0
    3.2505    1.0932   -1.9549 O   0  0  0  0  0  0  0  0  0  0  0  0
    2.9193    2.6574   -0.2312 C   0  0  0  0  0  0  0  0  0  0  0  0
    2.8421    3.7640   -1.0584 C   0  0  0  0  0  0  0  0  0  0  0  0
    2.6558    4.8298   -0.3513 O   0  0  0  0  0  0  0  0  0  0  0  0
    2.6004    4.5171    0.9210 C   0  0  0  0  0  0  0  0  0  0  0  0
    2.7654    3.1327    1.0384 C   0  0  0  0  0  0  0  0  0  0  0  0
    2.7673    2.4039    2.2869 C   0  0  0  0  0  0  0  0  0  0  0  0
    2.9150    1.1759    2.4224 O   0  0  0  0  0  0  0  0  0  0  0  0
    2.5865    3.1286    3.4813 O   0  0  0  0  0  0  0  0  0  0  0  0
   -1.7833    2.3863    3.6788 H   0  0  0  0  0  0  0  0  0  0  0  0
   -2.9606    2.6302    1.7515 H   0  0  0  0  0  0  0  0  0  0  0  0
   -1.7469    3.9099    1.2421 H   0  0  0  0  0  0  0  0  0  0  0  0
   -1.2038    0.9346    1.7691 H   0  0  0  0  0  0  0  0  0  0  0  0
    0.0310    2.1458    1.3951 H   0  0  0  0  0  0  0  0  0  0  0  0
   -1.1189    4.1210   -3.5495 H   0  0  0  0  0  0  0  0  0  0  0  0
   -2.2900    0.5822   -5.3467 H   0  0  0  0  0  0  0  0  0  0  0  0
   -3.1231   -3.0753   -4.1550 H   0  0  0  0  0  0  0  0  0  0  0  0
   -3.7156   -2.8308   -2.5230 H   0  0  0  0  0  0  0  0  0  0  0  0
   -0.9241   -3.7228   -3.4464 H   0  0  0  0  0  0  0  0  0  0  0  0
   -2.2173   -4.6498   -2.7058 H   0  0  0  0  0  0  0  0  0  0  0  0
   -3.2306   -3.2908    2.3360 H   0  0  0  0  0  0  0  0  0  0  0  0
    0.6770   -2.3449    3.5201 H   0  0  0  0  0  0  0  0  0  0  0  0
    4.2631   -1.9657    1.2079 H   0  0  0  0  0  0  0  0  0  0  0  0
    3.7211   -3.1269   -0.0065 H   0  0  0  0  0  0  0  0  0  0  0  0
    2.6647   -1.2025   -1.3081 H   0  0  0  0  0  0  0  0  0  0  0  0
    4.3968   -1.1244   -1.0231 H   0  0  0  0  0  0  0  0  0  0  0  0
    2.9221    3.7655   -2.1365 H   0  0  0  0  0  0  0  0  0  0  0  0
    2.4529    5.2061    1.7421 H   0  0  0  0  0  0  0  0  0  0  0  0
    2.8310    2.7065    4.3655 H   0  0  0  0  0  0  0  0  0  0  0  0
  1  2  1  0
  2  3  1  0
  3  4  1  0
  4  5  1  0
  5  6  2  0
  5  7  1  0
  7  8  2  0
  8  9  1  0
  9 10  1  0
 10 11  2  0
 11 12  1  0
 12 13  2  0
 12 14  1  0
 14 15  1  0
 15 16  1  0
 16 17  1  0
 17 18  1  0
 18 19  2  0
 18 20  1  0
 20 21  2  0
 21 22  1  0
 22 23  1  0
 23 24  2  0
 24 25  1  0
 25 26  2  0
 25 27  1  0
 27 28  1  0
 28 29  1  0
 29 30  1  0
 30 31  1  0
 31 32  2  0
 31 33  1  0
 33 34  2  0
 34 35  1  0
 35 36  1  0
 36 37  2  0
 37 38  1  0
 38 39  2  0
 38 40  1  0
 11  7  1  0
 24 20  1  0
 37 33  1  0
  1 41  1  0
  2 42  1  0
  2 43  1  0
  3 44  1  0
  3 45  1  0
  8 46  1  0
 10 47  1  0
 15 48  1  0
 15 49  1  0
 16 50  1  0
 16 51  1  0
 21 52  1  0
 23 53  1  0
 28 54  1  0
 28 55  1  0
 29 56  1  0
 29 57  1  0
 34 58  1  0
 36 59  1  0
 40 60  1  0
M  END
