
     RDKit          3D

 39 38  0  0  0  0  0  0  0  0999 V2000
    4.6722   -0.1277   -0.0405 O   0  0  0  0  0  0  0  0  0  0  0  0
    4.1604    1.1282    0.1956 C   0  0  2  0  0  0  0  0  0  0  0  0
    3.3325    1.0589    1.4765 C   0  0  0  0  0  0  0  0  0  0  0  0
    3.2816    1.5673   -0.9319 C   0  0  0  0  0  0  0  0  0  0  0  0
    2.1448    0.6382   -1.1178 C   0  0  0  0  0  0  0  0  0  0  0  0
    1.9704   -0.4067   -0.4406 O   0  0  0  0  0  0  0  0  0  0  0  0
    1.2171    0.9713   -2.1242 O   0  0  0  0  0  0  0  0  0  0  0  0
    0.1290    0.1063   -2.3476 C   0  0  2  0  0  0  0  0  0  0  0  0
    0.1441   -0.4449   -3.7606 C   0  0  0  0  0  0  0  0  0  0  0  0
   -1.2186    0.6919   -2.0266 C   0  0  0  0  0  0  0  0  0  0  0  0
   -1.3732    1.1221   -0.6407 C   0  0  0  0  0  0  0  0  0  0  0  0
   -0.4461    1.7530   -0.0551 O   0  0  0  0  0  0  0  0  0  0  0  0
   -2.5204    0.8594    0.0776 O   0  0  0  0  0  0  0  0  0  0  0  0
   -2.6862    1.2678    1.3868 C   0  0  2  0  0  0  0  0  0  0  0  0
   -2.5712    0.0583    2.3032 C   0  0  0  0  0  0  0  0  0  0  0  0
   -3.8751    2.0814    1.7090 C   0  0  0  0  0  0  0  0  0  0  0  0
   -5.1635    1.3960    1.4149 C   0  0  0  0  0  0  0  0  0  0  0  0
   -6.2742    1.9897    1.6429 O   0  0  0  0  0  0  0  0  0  0  0  0
   -5.2339    0.1116    0.8906 O   0  0  0  0  0  0  0  0  0  0  0  0
    4.2538   -0.6454   -0.7581 H   0  0  0  0  0  0  0  0  0  0  0  0
    4.9551    1.8856    0.3895 H   0  0  0  0  0  0  0  0  0  0  0  0
    2.9509    0.0300    1.6300 H   0  0  0  0  0  0  0  0  0  0  0  0
    2.5652    1.8455    1.5374 H   0  0  0  0  0  0  0  0  0  0  0  0
    4.0458    1.2252    2.3380 H   0  0  0  0  0  0  0  0  0  0  0  0
    3.8818    1.5991   -1.8713 H   0  0  0  0  0  0  0  0  0  0  0  0
    2.9347    2.6056   -0.7167 H   0  0  0  0  0  0  0  0  0  0  0  0
    0.2505   -0.7629   -1.6415 H   0  0  0  0  0  0  0  0  0  0  0  0
   -0.2702   -1.4652   -3.8383 H   0  0  0  0  0  0  0  0  0  0  0  0
    1.1410   -0.4497   -4.2228 H   0  0  0  0  0  0  0  0  0  0  0  0
   -0.5266    0.2285   -4.3686 H   0  0  0  0  0  0  0  0  0  0  0  0
   -1.3693    1.6232   -2.6554 H   0  0  0  0  0  0  0  0  0  0  0  0
   -1.9922   -0.0627   -2.2735 H   0  0  0  0  0  0  0  0  0  0  0  0
   -1.7608    1.8735    1.6436 H   0  0  0  0  0  0  0  0  0  0  0  0
   -1.6706    0.1352    2.9436 H   0  0  0  0  0  0  0  0  0  0  0  0
   -2.4577   -0.8739    1.7256 H   0  0  0  0  0  0  0  0  0  0  0  0
   -3.4265    0.0502    3.0071 H   0  0  0  0  0  0  0  0  0  0  0  0
   -3.8133    3.0750    1.2373 H   0  0  0  0  0  0  0  0  0  0  0  0
   -3.8659    2.2565    2.8083 H   0  0  0  0  0  0  0  0  0  0  0  0
   -5.9182   -0.0325    0.1303 H   0  0  0  0  0  0  0  0  0  0  0  0
  1  2  1  0
  2  3  1  0
  2  4  1  0
  4  5  1  0
  5  6  2  0
  5  7  1  0
  7  8  1  0
  8  9  1  0
  8 10  1  0
 10 11  1  0
 11 12  2  0
 11 13  1  0
 13 14  1  0
 14 15  1  0
 14 16  1  0
 16 17  1  0
 17 18  2  0
 17 19  1  0
  1 20  1  0
  2 21  1  1
  3 22  1  0
  3 23  1  0
  3 24  1  0
  4 25  1  0
  4 26  1  0
  8 27  1  1
  9 28  1  0
  9 29  1  0
  9 30  1  0
 10 31  1  0
 10 32  1  0
 14 33  1  1
 15 34  1  0
 15 35  1  0
 15 36  1  0
 16 37  1  0
 16 38  1  0
 19 39  1  0
M  END
