
     RDKit          3D

 75 74  0  0  0  0  0  0  0  0999 V2000
   -0.5498    3.6503    0.4794 C   0  0  0  0  0  0  0  0  0  0  0  0
   -1.1132    3.4838   -0.8941 C   0  0  0  0  0  0  0  0  0  0  0  0
   -1.2134    2.1047   -1.2965 O   0  0  0  0  0  0  0  0  0  0  0  0
   -1.7217    1.8108   -2.5484 C   0  0  0  0  0  0  0  0  0  0  0  0
   -2.0554    2.8582   -3.2322 O   0  0  0  0  0  0  0  0  0  0  0  0
   -1.9310    0.5332   -3.1883 C   0  0  0  0  0  0  0  0  0  0  0  0
   -1.4961   -0.6838   -2.4658 C   0  0  0  0  0  0  0  0  0  0  0  0
   -2.0975   -0.9661   -1.1352 C   0  0  0  0  0  0  0  0  0  0  0  0
   -1.6973   -2.2450   -0.5299 C   0  0  0  0  0  0  0  0  0  0  0  0
   -0.2933   -2.4394   -0.2799 O   0  0  0  0  0  0  0  0  0  0  0  0
    0.0603   -3.7109    0.2113 C   0  0  0  0  0  0  0  0  0  0  0  0
   -0.9896   -4.4766    0.3327 O   0  0  0  0  0  0  0  0  0  0  0  0
    1.3124   -4.2722    0.5791 C   0  0  0  0  0  0  0  0  0  0  0  0
    2.4923   -3.4802    0.9185 C   0  0  0  0  0  0  0  0  0  0  0  0
    3.1003   -2.6303    0.0318 O   0  0  0  0  0  0  0  0  0  0  0  0
    3.6689   -2.9406   -1.1908 C   0  0  0  0  0  0  0  0  0  0  0  0
    3.5992   -4.1582   -1.5438 O   0  0  0  0  0  0  0  0  0  0  0  0
    4.3352   -2.0080   -2.0888 C   0  0  0  0  0  0  0  0  0  0  0  0
    3.6961   -1.6554   -3.3648 C   0  0  0  0  0  0  0  0  0  0  0  0
    2.3600   -0.9930   -3.3002 C   0  0  0  0  0  0  0  0  0  0  0  0
    2.3880    0.3324   -2.5499 C   0  0  0  0  0  0  0  0  0  0  0  0
    2.8006    0.2154   -1.2207 O   0  0  0  0  0  0  0  0  0  0  0  0
    2.9048    1.2454   -0.3023 C   0  0  0  0  0  0  0  0  0  0  0  0
    2.5963    2.3993   -0.7009 O   0  0  0  0  0  0  0  0  0  0  0  0
    3.3628    0.9164    1.0554 C   0  0  0  0  0  0  0  0  0  0  0  0
    2.3646    0.3115    1.9529 C   0  0  0  0  0  0  0  0  0  0  0  0
    1.2172    1.0649    2.2574 O   0  0  0  0  0  0  0  0  0  0  0  0
    0.2832    0.4125    3.0648 C   0  0  0  0  0  0  0  0  0  0  0  0
    0.5778   -0.7668    3.4157 O   0  0  0  0  0  0  0  0  0  0  0  0
   -0.9790    0.9741    3.5237 C   0  0  0  0  0  0  0  0  0  0  0  0
   -2.1262    0.8383    2.5521 C   0  0  0  0  0  0  0  0  0  0  0  0
   -3.4148    1.4132    3.1077 C   0  0  0  0  0  0  0  0  0  0  0  0
   -4.5588    1.3012    2.1229 C   0  0  0  0  0  0  0  0  0  0  0  0
   -4.2672    2.0315    0.9373 O   0  0  0  0  0  0  0  0  0  0  0  0
   -5.2353    2.0027   -0.0703 C   0  0  0  0  0  0  0  0  0  0  0  0
   -6.3126    1.3733    0.0294 O   0  0  0  0  0  0  0  0  0  0  0  0
   -4.9311    2.7335   -1.2184 O   0  0  0  0  0  0  0  0  0  0  0  0
   -1.3181    3.5384    1.2922 H   0  0  0  0  0  0  0  0  0  0  0  0
    0.3497    3.0622    0.6624 H   0  0  0  0  0  0  0  0  0  0  0  0
   -0.2512    4.7376    0.5683 H   0  0  0  0  0  0  0  0  0  0  0  0
   -2.1144    3.9571   -0.9177 H   0  0  0  0  0  0  0  0  0  0  0  0
   -0.4489    4.0393   -1.5900 H   0  0  0  0  0  0  0  0  0  0  0  0
   -2.9787    0.4209   -3.6021 H   0  0  0  0  0  0  0  0  0  0  0  0
   -1.2986    0.5664   -4.1473 H   0  0  0  0  0  0  0  0  0  0  0  0
   -1.5927   -1.6095   -3.0838 H   0  0  0  0  0  0  0  0  0  0  0  0
   -0.3937   -0.5749   -2.3043 H   0  0  0  0  0  0  0  0  0  0  0  0
   -3.2105   -0.9616   -1.2791 H   0  0  0  0  0  0  0  0  0  0  0  0
   -1.8761   -0.1127   -0.4640 H   0  0  0  0  0  0  0  0  0  0  0  0
   -2.0240   -3.1487   -1.0739 H   0  0  0  0  0  0  0  0  0  0  0  0
   -2.1477   -2.3014    0.5063 H   0  0  0  0  0  0  0  0  0  0  0  0
    1.1399   -4.9640    1.4928 H   0  0  0  0  0  0  0  0  0  0  0  0
    1.6790   -5.0690   -0.1672 H   0  0  0  0  0  0  0  0  0  0  0  0
    2.2964   -2.9226    1.8961 H   0  0  0  0  0  0  0  0  0  0  0  0
    3.2825   -4.2384    1.2831 H   0  0  0  0  0  0  0  0  0  0  0  0
    4.6854   -1.0595   -1.5735 H   0  0  0  0  0  0  0  0  0  0  0  0
    5.3311   -2.4846   -2.3611 H   0  0  0  0  0  0  0  0  0  0  0  0
    4.3622   -1.0040   -3.9782 H   0  0  0  0  0  0  0  0  0  0  0  0
    3.5586   -2.5710   -4.0162 H   0  0  0  0  0  0  0  0  0  0  0  0
    2.0673   -0.7310   -4.3499 H   0  0  0  0  0  0  0  0  0  0  0  0
    1.5693   -1.6631   -2.9190 H   0  0  0  0  0  0  0  0  0  0  0  0
    3.1468    1.0224   -3.0349 H   0  0  0  0  0  0  0  0  0  0  0  0
    1.4282    0.8268   -2.7175 H   0  0  0  0  0  0  0  0  0  0  0  0
    4.2520    0.2464    0.9865 H   0  0  0  0  0  0  0  0  0  0  0  0
    3.7859    1.8540    1.5319 H   0  0  0  0  0  0  0  0  0  0  0  0
    1.9555   -0.6368    1.4896 H   0  0  0  0  0  0  0  0  0  0  0  0
    2.8342    0.0619    2.9269 H   0  0  0  0  0  0  0  0  0  0  0  0
   -1.2491    0.5820    4.5326 H   0  0  0  0  0  0  0  0  0  0  0  0
   -0.8333    2.0855    3.6747 H   0  0  0  0  0  0  0  0  0  0  0  0
   -1.9068    1.2425    1.5640 H   0  0  0  0  0  0  0  0  0  0  0  0
   -2.3081   -0.2555    2.4171 H   0  0  0  0  0  0  0  0  0  0  0  0
   -3.7175    0.7499    3.9721 H   0  0  0  0  0  0  0  0  0  0  0  0
   -3.3014    2.4084    3.5486 H   0  0  0  0  0  0  0  0  0  0  0  0
   -5.4602    1.6962    2.6085 H   0  0  0  0  0  0  0  0  0  0  0  0
   -4.6343    0.2458    1.8273 H   0  0  0  0  0  0  0  0  0  0  0  0
   -5.6316    2.9308   -1.9321 H   0  0  0  0  0  0  0  0  0  0  0  0
  1  2  1  0
  2  3  1  0
  3  4  1  0
  4  5  2  0
  4  6  1  0
  6  7  1  0
  7  8  1  0
  8  9  1  0
  9 10  1  0
 10 11  1  0
 11 12  2  0
 11 13  1  0
 13 14  1  0
 14 15  1  0
 15 16  1  0
 16 17  2  0
 16 18  1  0
 18 19  1  0
 19 20  1  0
 20 21  1  0
 21 22  1  0
 22 23  1  0
 23 24  2  0
 23 25  1  0
 25 26  1  0
 26 27  1  0
 27 28  1  0
 28 29  2  0
 28 30  1  0
 30 31  1  0
 31 32  1  0
 32 33  1  0
 33 34  1  0
 34 35  1  0
 35 36  2  0
 35 37  1  0
  1 38  1  0
  1 39  1  0
  1 40  1  0
  2 41  1  0
  2 42  1  0
  6 43  1  0
  6 44  1  0
  7 45  1  0
  7 46  1  0
  8 47  1  0
  8 48  1  0
  9 49  1  0
  9 50  1  0
 13 51  1  0
 13 52  1  0
 14 53  1  0
 14 54  1  0
 18 55  1  0
 18 56  1  0
 19 57  1  0
 19 58  1  0
 20 59  1  0
 20 60  1  0
 21 61  1  0
 21 62  1  0
 25 63  1  0
 25 64  1  0
 26 65  1  0
 26 66  1  0
 30 67  1  0
 30 68  1  0
 31 69  1  0
 31 70  1  0
 32 71  1  0
 32 72  1  0
 33 73  1  0
 33 74  1  0
 37 75  1  0
M  END
