
     RDKit          3D

 63 62  0  0  0  0  0  0  0  0999 V2000
    5.9905    0.8323    1.6681 C   0  0  0  0  0  0  0  0  0  0  0  0
    5.9522    2.1764    1.0250 C   0  0  0  0  0  0  0  0  0  0  0  0
    5.3766    2.3074   -0.3141 C   0  0  0  0  0  0  0  0  0  0  0  0
    3.9580    2.0102   -0.5945 C   0  0  2  0  0  0  0  0  0  0  0  0
    2.9253    2.8028    0.1115 C   0  0  0  0  0  0  0  0  0  0  0  0
    2.8918    2.7548    1.6013 C   0  0  0  0  0  0  0  0  0  0  0  0
    3.7024    0.5631   -0.7013 C   0  0  0  0  0  0  0  0  0  0  0  0
    4.6034   -0.2925   -0.6232 O   0  0  0  0  0  0  0  0  0  0  0  0
    2.3376   -0.0446   -0.9165 C   0  0  0  0  0  0  0  0  0  0  0  0
    1.9632   -0.8608    0.2947 C   0  0  0  0  0  0  0  0  0  0  0  0
    0.6228   -1.5019    0.0856 C   0  0  0  0  0  0  0  0  0  0  0  0
   -0.4368   -0.4904   -0.1270 C   0  0  2  0  0  0  0  0  0  0  0  0
   -0.6102    0.4690    0.9983 C   0  0  0  0  0  0  0  0  0  0  0  0
   -0.9685   -0.1711    2.3001 C   0  0  0  0  0  0  0  0  0  0  0  0
   -1.7850   -1.1394   -0.3930 C   0  0  0  0  0  0  0  0  0  0  0  0
   -2.6492   -0.8548    0.4005 O   0  0  0  0  0  0  0  0  0  0  0  0
   -1.8458   -2.0031   -1.5525 C   0  0  0  0  0  0  0  0  0  0  0  0
   -3.1147   -2.5618   -2.0661 C   0  0  0  0  0  0  0  0  0  0  0  0
   -4.1597   -1.6613   -2.6126 C   0  0  0  0  0  0  0  0  0  0  0  0
   -4.8625   -0.6841   -1.7825 C   0  0  2  0  0  0  0  0  0  0  0  0
   -5.6674   -1.2297   -0.6449 C   0  0  0  0  0  0  0  0  0  0  0  0
   -6.7674   -2.1621   -1.0792 C   0  0  0  0  0  0  0  0  0  0  0  0
   -5.8125    0.0470   -2.7310 C   0  0  0  0  0  0  0  0  0  0  0  0
   -5.7367    1.2864   -2.9029 O   0  0  0  0  0  0  0  0  0  0  0  0
   -6.7859   -0.6575   -3.4257 O   0  0  0  0  0  0  0  0  0  0  0  0
    6.6589    0.1610    1.0660 H   0  0  0  0  0  0  0  0  0  0  0  0
    5.0302    0.3743    1.9044 H   0  0  0  0  0  0  0  0  0  0  0  0
    6.5068    0.9236    2.6870 H   0  0  0  0  0  0  0  0  0  0  0  0
    7.0480    2.5164    0.9665 H   0  0  0  0  0  0  0  0  0  0  0  0
    5.5427    2.8827    1.7865 H   0  0  0  0  0  0  0  0  0  0  0  0
    5.6426    3.3335   -0.7466 H   0  0  0  0  0  0  0  0  0  0  0  0
    5.9803    1.6236   -1.0074 H   0  0  0  0  0  0  0  0  0  0  0  0
    3.8483    2.3948   -1.7142 H   0  0  0  0  0  0  0  0  0  0  0  0
    1.9009    2.4703   -0.2340 H   0  0  0  0  0  0  0  0  0  0  0  0
    2.9262    3.8895   -0.2500 H   0  0  0  0  0  0  0  0  0  0  0  0
    3.3550    3.7139    1.9835 H   0  0  0  0  0  0  0  0  0  0  0  0
    1.8114    2.7513    1.9813 H   0  0  0  0  0  0  0  0  0  0  0  0
    3.3480    1.9093    2.0891 H   0  0  0  0  0  0  0  0  0  0  0  0
    2.3531   -0.7115   -1.8092 H   0  0  0  0  0  0  0  0  0  0  0  0
    1.6172    0.7555   -1.1292 H   0  0  0  0  0  0  0  0  0  0  0  0
    2.7366   -1.6589    0.4888 H   0  0  0  0  0  0  0  0  0  0  0  0
    1.9581   -0.1314    1.1452 H   0  0  0  0  0  0  0  0  0  0  0  0
    0.7425   -2.1664   -0.7969 H   0  0  0  0  0  0  0  0  0  0  0  0
    0.3728   -2.2188    0.9204 H   0  0  0  0  0  0  0  0  0  0  0  0
   -0.2385    0.0720   -1.0576 H   0  0  0  0  0  0  0  0  0  0  0  0
    0.3129    1.0692    1.1843 H   0  0  0  0  0  0  0  0  0  0  0  0
   -1.3876    1.2422    0.7702 H   0  0  0  0  0  0  0  0  0  0  0  0
   -0.4490    0.2612    3.1796 H   0  0  0  0  0  0  0  0  0  0  0  0
   -0.7743   -1.2604    2.3474 H   0  0  0  0  0  0  0  0  0  0  0  0
   -2.0491   -0.0254    2.4908 H   0  0  0  0  0  0  0  0  0  0  0  0
   -1.4304   -1.4003   -2.4487 H   0  0  0  0  0  0  0  0  0  0  0  0
   -1.0376   -2.8161   -1.5115 H   0  0  0  0  0  0  0  0  0  0  0  0
   -2.8160   -3.2438   -2.9444 H   0  0  0  0  0  0  0  0  0  0  0  0
   -3.5683   -3.3043   -1.3237 H   0  0  0  0  0  0  0  0  0  0  0  0
   -3.6061   -1.0296   -3.4041 H   0  0  0  0  0  0  0  0  0  0  0  0
   -4.8612   -2.2298   -3.3082 H   0  0  0  0  0  0  0  0  0  0  0  0
   -4.1938    0.1122   -1.4387 H   0  0  0  0  0  0  0  0  0  0  0  0
   -6.1231   -0.3808   -0.0990 H   0  0  0  0  0  0  0  0  0  0  0  0
   -5.0628   -1.8012    0.0762 H   0  0  0  0  0  0  0  0  0  0  0  0
   -6.9603   -2.9485   -0.2996 H   0  0  0  0  0  0  0  0  0  0  0  0
   -6.5890   -2.6946   -2.0151 H   0  0  0  0  0  0  0  0  0  0  0  0
   -7.7286   -1.6168   -1.1757 H   0  0  0  0  0  0  0  0  0  0  0  0
   -7.7125   -0.2434   -3.5955 H   0  0  0  0  0  0  0  0  0  0  0  0
  1  2  1  0
  2  3  1  0
  3  4  1  0
  4  5  1  0
  5  6  1  0
  4  7  1  0
  7  8  2  0
  7  9  1  0
  9 10  1  0
 10 11  1  0
 11 12  1  0
 12 13  1  0
 13 14  1  0
 12 15  1  0
 15 16  2  0
 15 17  1  0
 17 18  1  0
 18 19  1  0
 19 20  1  0
 20 21  1  0
 21 22  1  0
 20 23  1  0
 23 24  2  0
 23 25  1  0
  1 26  1  0
  1 27  1  0
  1 28  1  0
  2 29  1  0
  2 30  1  0
  3 31  1  0
  3 32  1  0
  4 33  1  6
  5 34  1  0
  5 35  1  0
  6 36  1  0
  6 37  1  0
  6 38  1  0
  9 39  1  0
  9 40  1  0
 10 41  1  0
 10 42  1  0
 11 43  1  0
 11 44  1  0
 12 45  1  6
 13 46  1  0
 13 47  1  0
 14 48  1  0
 14 49  1  0
 14 50  1  0
 17 51  1  0
 17 52  1  0
 18 53  1  0
 18 54  1  0
 19 55  1  0
 19 56  1  0
 20 57  1  1
 21 58  1  0
 21 59  1  0
 22 60  1  0
 22 61  1  0
 22 62  1  0
 25 63  1  0
M  END
