
     RDKit          3D

 84 83  0  0  0  0  0  0  0  0999 V2000
   -2.2797   -5.4424   -3.6626 C   0  0  0  0  0  0  0  0  0  0  0  0
   -3.1955   -4.6218   -2.7711 C   0  0  0  0  0  0  0  0  0  0  0  0
   -2.8523   -3.2472   -2.8858 O   0  0  0  0  0  0  0  0  0  0  0  0
   -3.5376   -2.2904   -2.1727 C   0  0  0  0  0  0  0  0  0  0  0  0
   -4.4806   -2.7270   -1.4192 O   0  0  0  0  0  0  0  0  0  0  0  0
   -3.2497   -0.8545   -2.2336 C   0  0  0  0  0  0  0  0  0  0  0  0
   -1.8964   -0.4037   -1.8174 C   0  0  0  0  0  0  0  0  0  0  0  0
   -1.9150    1.1366   -2.0039 C   0  0  0  0  0  0  0  0  0  0  0  0
   -1.4308   -0.7161   -0.4517 C   0  0  0  0  0  0  0  0  0  0  0  0
   -1.3296   -2.1664   -0.0778 C   0  0  0  0  0  0  0  0  0  0  0  0
   -0.4347   -2.7838   -1.0034 O   0  0  0  0  0  0  0  0  0  0  0  0
   -0.1646   -4.1348   -0.8512 C   0  0  0  0  0  0  0  0  0  0  0  0
   -0.7368   -4.7243    0.1112 O   0  0  0  0  0  0  0  0  0  0  0  0
    0.7214   -4.9332   -1.7040 C   0  0  0  0  0  0  0  0  0  0  0  0
    2.1605   -4.9105   -1.2500 C   0  0  0  0  0  0  0  0  0  0  0  0
    2.6644   -3.5730   -1.3046 O   0  0  0  0  0  0  0  0  0  0  0  0
    3.9664   -3.3698   -0.8893 C   0  0  0  0  0  0  0  0  0  0  0  0
    4.5985   -4.3973   -0.4828 O   0  0  0  0  0  0  0  0  0  0  0  0
    4.6470   -2.0540   -0.8927 C   0  0  0  0  0  0  0  0  0  0  0  0
    4.3063   -1.1918    0.2814 C   0  0  0  0  0  0  0  0  0  0  0  0
    5.0918    0.0985    0.1242 C   0  0  0  0  0  0  0  0  0  0  0  0
    4.4669   -1.8378    1.6134 C   0  0  0  0  0  0  0  0  0  0  0  0
    4.1021   -0.8977    2.7524 C   0  0  0  0  0  0  0  0  0  0  0  0
    2.7570   -0.4716    2.6410 O   0  0  0  0  0  0  0  0  0  0  0  0
    2.2608    0.3951    3.5827 C   0  0  0  0  0  0  0  0  0  0  0  0
    3.0267    0.7869    4.5253 O   0  0  0  0  0  0  0  0  0  0  0  0
    0.8610    0.8900    3.5367 C   0  0  0  0  0  0  0  0  0  0  0  0
    0.7792    2.2605    2.9088 C   0  0  0  0  0  0  0  0  0  0  0  0
   -0.5477    2.7523    2.8565 O   0  0  0  0  0  0  0  0  0  0  0  0
   -0.8637    4.0011    2.3116 C   0  0  0  0  0  0  0  0  0  0  0  0
    0.0878    4.6866    1.8592 O   0  0  0  0  0  0  0  0  0  0  0  0
   -2.2584    4.4867    2.2739 C   0  0  0  0  0  0  0  0  0  0  0  0
   -2.9151    4.3677    0.9270 C   0  0  0  0  0  0  0  0  0  0  0  0
   -4.3187    4.8931    1.0276 C   0  0  0  0  0  0  0  0  0  0  0  0
   -2.2005    5.1461   -0.1590 C   0  0  0  0  0  0  0  0  0  0  0  0
   -2.9920    4.9166   -1.4276 C   0  0  0  0  0  0  0  0  0  0  0  0
   -2.4798    5.5632   -2.5524 O   0  0  0  0  0  0  0  0  0  0  0  0
   -1.2059    5.2819   -3.0001 C   0  0  0  0  0  0  0  0  0  0  0  0
   -0.4256    4.4585   -2.4648 O   0  0  0  0  0  0  0  0  0  0  0  0
   -0.7378    5.9501   -4.1239 O   0  0  0  0  0  0  0  0  0  0  0  0
   -2.8687   -5.8266   -4.5084 H   0  0  0  0  0  0  0  0  0  0  0  0
   -1.8378   -6.2922   -3.1216 H   0  0  0  0  0  0  0  0  0  0  0  0
   -1.4724   -4.7803   -4.0626 H   0  0  0  0  0  0  0  0  0  0  0  0
   -3.2071   -4.9623   -1.7291 H   0  0  0  0  0  0  0  0  0  0  0  0
   -4.2446   -4.6831   -3.1612 H   0  0  0  0  0  0  0  0  0  0  0  0
   -3.3563   -0.5638   -3.3300 H   0  0  0  0  0  0  0  0  0  0  0  0
   -4.0288   -0.2938   -1.6608 H   0  0  0  0  0  0  0  0  0  0  0  0
   -1.1691   -0.7269   -2.6160 H   0  0  0  0  0  0  0  0  0  0  0  0
   -2.1354    1.3915   -3.0555 H   0  0  0  0  0  0  0  0  0  0  0  0
   -2.7438    1.4672   -1.3370 H   0  0  0  0  0  0  0  0  0  0  0  0
   -0.9659    1.5903   -1.7232 H   0  0  0  0  0  0  0  0  0  0  0  0
   -0.4338   -0.1993   -0.2850 H   0  0  0  0  0  0  0  0  0  0  0  0
   -2.1095   -0.1791    0.2614 H   0  0  0  0  0  0  0  0  0  0  0  0
   -2.2818   -2.6605    0.0410 H   0  0  0  0  0  0  0  0  0  0  0  0
   -0.8041   -2.2467    0.9233 H   0  0  0  0  0  0  0  0  0  0  0  0
    0.3987   -5.9815   -1.8150 H   0  0  0  0  0  0  0  0  0  0  0  0
    0.7200   -4.5295   -2.7574 H   0  0  0  0  0  0  0  0  0  0  0  0
    2.7391   -5.5503   -1.9285 H   0  0  0  0  0  0  0  0  0  0  0  0
    2.1981   -5.3268   -0.2310 H   0  0  0  0  0  0  0  0  0  0  0  0
    4.3249   -1.5689   -1.8612 H   0  0  0  0  0  0  0  0  0  0  0  0
    5.7518   -2.1871   -0.9939 H   0  0  0  0  0  0  0  0  0  0  0  0
    3.2201   -0.8996    0.1334 H   0  0  0  0  0  0  0  0  0  0  0  0
    6.1810   -0.1243    0.1295 H   0  0  0  0  0  0  0  0  0  0  0  0
    4.8470    0.5012   -0.8824 H   0  0  0  0  0  0  0  0  0  0  0  0
    4.7981    0.8422    0.8661 H   0  0  0  0  0  0  0  0  0  0  0  0
    3.8016   -2.7096    1.7089 H   0  0  0  0  0  0  0  0  0  0  0  0
    5.5023   -2.1916    1.7001 H   0  0  0  0  0  0  0  0  0  0  0  0
    4.1688   -1.4818    3.6895 H   0  0  0  0  0  0  0  0  0  0  0  0
    4.7570   -0.0163    2.8078 H   0  0  0  0  0  0  0  0  0  0  0  0
    0.5258    0.9891    4.6041 H   0  0  0  0  0  0  0  0  0  0  0  0
    0.1723    0.1757    3.0592 H   0  0  0  0  0  0  0  0  0  0  0  0
    1.3979    2.9745    3.4803 H   0  0  0  0  0  0  0  0  0  0  0  0
    1.1630    2.2097    1.8709 H   0  0  0  0  0  0  0  0  0  0  0  0
   -2.3364    5.5366    2.6426 H   0  0  0  0  0  0  0  0  0  0  0  0
   -2.8848    3.8714    2.9682 H   0  0  0  0  0  0  0  0  0  0  0  0
   -2.9741    3.2896    0.6528 H   0  0  0  0  0  0  0  0  0  0  0  0
   -4.7524    4.8063    2.0554 H   0  0  0  0  0  0  0  0  0  0  0  0
   -4.9577    4.3253    0.2928 H   0  0  0  0  0  0  0  0  0  0  0  0
   -4.3765    5.9649    0.6932 H   0  0  0  0  0  0  0  0  0  0  0  0
   -2.2580    6.2305    0.1132 H   0  0  0  0  0  0  0  0  0  0  0  0
   -1.1691    4.8126   -0.2845 H   0  0  0  0  0  0  0  0  0  0  0  0
   -4.0194    5.3286   -1.2485 H   0  0  0  0  0  0  0  0  0  0  0  0
   -3.1195    3.8259   -1.5595 H   0  0  0  0  0  0  0  0  0  0  0  0
   -0.0130    5.4887   -4.6876 H   0  0  0  0  0  0  0  0  0  0  0  0
  1  2  1  0
  2  3  1  0
  3  4  1  0
  4  5  2  0
  4  6  1  0
  6  7  1  0
  7  8  1  0
  7  9  1  0
  9 10  1  0
 10 11  1  0
 11 12  1  0
 12 13  2  0
 12 14  1  0
 14 15  1  0
 15 16  1  0
 16 17  1  0
 17 18  2  0
 17 19  1  0
 19 20  1  0
 20 21  1  0
 20 22  1  0
 22 23  1  0
 23 24  1  0
 24 25  1  0
 25 26  2  0
 25 27  1  0
 27 28  1  0
 28 29  1  0
 29 30  1  0
 30 31  2  0
 30 32  1  0
 32 33  1  0
 33 34  1  0
 33 35  1  0
 35 36  1  0
 36 37  1  0
 37 38  1  0
 38 39  2  0
 38 40  1  0
  1 41  1  0
  1 42  1  0
  1 43  1  0
  2 44  1  0
  2 45  1  0
  6 46  1  0
  6 47  1  0
  7 48  1  0
  8 49  1  0
  8 50  1  0
  8 51  1  0
  9 52  1  0
  9 53  1  0
 10 54  1  0
 10 55  1  0
 14 56  1  0
 14 57  1  0
 15 58  1  0
 15 59  1  0
 19 60  1  0
 19 61  1  0
 20 62  1  0
 21 63  1  0
 21 64  1  0
 21 65  1  0
 22 66  1  0
 22 67  1  0
 23 68  1  0
 23 69  1  0
 27 70  1  0
 27 71  1  0
 28 72  1  0
 28 73  1  0
 32 74  1  0
 32 75  1  0
 33 76  1  0
 34 77  1  0
 34 78  1  0
 34 79  1  0
 35 80  1  0
 35 81  1  0
 36 82  1  0
 36 83  1  0
 40 84  1  0
M  END
