
     RDKit          3D

 30 29  0  0  0  0  0  0  0  0999 V2000
    2.3720   -0.3180   -1.9410 O   0  0  0  0  0  0  0  0  0  0  0  0
    1.8510    0.4907   -2.9438 C   0  0  2  0  0  0  0  0  0  0  0  0
    3.0239    1.0558   -3.7144 C   0  0  0  0  0  0  0  0  0  0  0  0
    1.0818    1.5860   -2.2657 C   0  0  0  0  0  0  0  0  0  0  0  0
    0.5177    2.4465   -3.0250 O   0  0  0  0  0  0  0  0  0  0  0  0
    0.9810    1.6707   -0.8825 O   0  0  0  0  0  0  0  0  0  0  0  0
    0.2449    2.7228   -0.3187 C   0  0  2  0  0  0  0  0  0  0  0  0
    1.1329    3.6608    0.4881 C   0  0  0  0  0  0  0  0  0  0  0  0
   -0.8562    2.2590    0.5525 C   0  0  0  0  0  0  0  0  0  0  0  0
   -1.6075    3.1168    1.1307 O   0  0  0  0  0  0  0  0  0  0  0  0
   -1.0499    0.8932    0.7234 O   0  0  0  0  0  0  0  0  0  0  0  0
   -2.0380    0.3018    1.5077 C   0  0  2  0  0  0  0  0  0  0  0  0
   -1.3504   -0.5742    2.5405 C   0  0  0  0  0  0  0  0  0  0  0  0
   -2.9428   -0.5868    0.7361 C   0  0  0  0  0  0  0  0  0  0  0  0
   -3.8844   -1.1793    1.3594 O   0  0  0  0  0  0  0  0  0  0  0  0
   -2.8000   -0.7927   -0.6279 O   0  0  0  0  0  0  0  0  0  0  0  0
    3.0912   -0.8911   -2.3106 H   0  0  0  0  0  0  0  0  0  0  0  0
    1.1394   -0.0591   -3.5659 H   0  0  0  0  0  0  0  0  0  0  0  0
    2.8001    1.9916   -4.2270 H   0  0  0  0  0  0  0  0  0  0  0  0
    3.8566    1.2166   -2.9830 H   0  0  0  0  0  0  0  0  0  0  0  0
    3.3759    0.2573   -4.3899 H   0  0  0  0  0  0  0  0  0  0  0  0
   -0.1508    3.3400   -1.1533 H   0  0  0  0  0  0  0  0  0  0  0  0
    0.9255    3.5659    1.5773 H   0  0  0  0  0  0  0  0  0  0  0  0
    1.0136    4.7199    0.2167 H   0  0  0  0  0  0  0  0  0  0  0  0
    2.1992    3.3624    0.3412 H   0  0  0  0  0  0  0  0  0  0  0  0
   -2.6944    1.0383    2.0131 H   0  0  0  0  0  0  0  0  0  0  0  0
   -1.9509   -0.6403    3.4604 H   0  0  0  0  0  0  0  0  0  0  0  0
   -1.2467   -1.6272    2.1713 H   0  0  0  0  0  0  0  0  0  0  0  0
   -0.3163   -0.2178    2.7816 H   0  0  0  0  0  0  0  0  0  0  0  0
   -3.6572   -0.8350   -1.1968 H   0  0  0  0  0  0  0  0  0  0  0  0
  1  2  1  0
  2  3  1  0
  2  4  1  0
  4  5  2  0
  4  6  1  0
  6  7  1  0
  7  8  1  0
  7  9  1  0
  9 10  2  0
  9 11  1  0
 11 12  1  0
 12 13  1  0
 12 14  1  0
 14 15  2  0
 14 16  1  0
  1 17  1  0
  2 18  1  6
  3 19  1  0
  3 20  1  0
  3 21  1  0
  7 22  1  6
  8 23  1  0
  8 24  1  0
  8 25  1  0
 12 26  1  1
 13 27  1  0
 13 28  1  0
 13 29  1  0
 16 30  1  0
M  END
