
     RDKit          3D

 60 59  0  0  0  0  0  0  0  0999 V2000
    4.0950    1.4904    2.9249 O   0  0  0  0  0  0  0  0  0  0  0  0
    5.4731    1.5762    2.6697 C   0  0  0  0  0  0  0  0  0  0  0  0
    5.6998    2.7789    1.7913 C   0  0  0  0  0  0  0  0  0  0  0  0
    4.9672    2.7023    0.4778 C   0  0  0  0  0  0  0  0  0  0  0  0
    5.4044    1.5146   -0.3029 C   0  0  0  0  0  0  0  0  0  0  0  0
    4.7047    1.3875   -1.6371 C   0  0  0  0  0  0  0  0  0  0  0  0
    3.3200    1.2683   -1.5289 O   0  0  0  0  0  0  0  0  0  0  0  0
    2.5761    1.1450   -2.7025 C   0  0  0  0  0  0  0  0  0  0  0  0
    3.0966    1.1367   -3.8427 O   0  0  0  0  0  0  0  0  0  0  0  0
    1.2033    1.0288   -2.5580 O   0  0  0  0  0  0  0  0  0  0  0  0
    0.2746    0.8957   -3.5897 C   0  0  0  0  0  0  0  0  0  0  0  0
   -1.0962    0.7989   -3.0495 C   0  0  0  0  0  0  0  0  0  0  0  0
   -1.5930    1.9331   -2.2460 C   0  0  0  0  0  0  0  0  0  0  0  0
   -0.8504    2.2820   -1.0146 C   0  0  0  0  0  0  0  0  0  0  0  0
   -0.8260    1.1130   -0.0282 C   0  0  0  0  0  0  0  0  0  0  0  0
   -2.1895    0.8548    0.2586 O   0  0  0  0  0  0  0  0  0  0  0  0
   -2.6072   -0.1563    1.1339 C   0  0  0  0  0  0  0  0  0  0  0  0
   -1.6904   -0.8283    1.6555 O   0  0  0  0  0  0  0  0  0  0  0  0
   -3.9265   -0.3161    1.3352 O   0  0  0  0  0  0  0  0  0  0  0  0
   -4.5795   -1.2243    2.1042 C   0  0  0  0  0  0  0  0  0  0  0  0
   -4.6500   -2.6230    1.6092 C   0  0  0  0  0  0  0  0  0  0  0  0
   -3.4045   -3.3735    1.3262 C   0  0  0  0  0  0  0  0  0  0  0  0
   -3.6763   -4.7955    0.8921 C   0  0  0  0  0  0  0  0  0  0  0  0
   -4.4784   -4.9673   -0.3401 C   0  0  0  0  0  0  0  0  0  0  0  0
   -3.9748   -4.4866   -1.5071 O   0  0  0  0  0  0  0  0  0  0  0  0
   -3.6943   -3.3151   -2.0425 C   0  0  0  0  0  0  0  0  0  0  0  0
   -3.8704   -2.2137   -1.5070 O   0  0  0  0  0  0  0  0  0  0  0  0
   -3.1405   -3.2731   -3.3458 O   0  0  0  0  0  0  0  0  0  0  0  0
    3.8442    2.2700    3.4660 H   0  0  0  0  0  0  0  0  0  0  0  0
    5.9288    1.7833    3.6730 H   0  0  0  0  0  0  0  0  0  0  0  0
    5.9051    0.6760    2.2335 H   0  0  0  0  0  0  0  0  0  0  0  0
    6.7958    2.8744    1.6598 H   0  0  0  0  0  0  0  0  0  0  0  0
    5.4049    3.6788    2.3832 H   0  0  0  0  0  0  0  0  0  0  0  0
    3.8809    2.7386    0.6547 H   0  0  0  0  0  0  0  0  0  0  0  0
    5.2732    3.6335   -0.0835 H   0  0  0  0  0  0  0  0  0  0  0  0
    6.4912    1.6372   -0.5420 H   0  0  0  0  0  0  0  0  0  0  0  0
    5.3113    0.5999    0.3053 H   0  0  0  0  0  0  0  0  0  0  0  0
    5.0706    0.4340   -2.1005 H   0  0  0  0  0  0  0  0  0  0  0  0
    4.9468    2.2283   -2.2956 H   0  0  0  0  0  0  0  0  0  0  0  0
    0.5261   -0.0563   -4.1044 H   0  0  0  0  0  0  0  0  0  0  0  0
    0.4257    1.6737   -4.3598 H   0  0  0  0  0  0  0  0  0  0  0  0
   -1.7969    0.6531   -3.8986 H   0  0  0  0  0  0  0  0  0  0  0  0
   -1.1592   -0.1492   -2.4744 H   0  0  0  0  0  0  0  0  0  0  0  0
   -2.6420    1.7215   -1.9483 H   0  0  0  0  0  0  0  0  0  0  0  0
   -1.6685    2.8615   -2.8605 H   0  0  0  0  0  0  0  0  0  0  0  0
    0.1483    2.7231   -1.1760 H   0  0  0  0  0  0  0  0  0  0  0  0
   -1.4394    3.0734   -0.4988 H   0  0  0  0  0  0  0  0  0  0  0  0
   -0.3762    1.4195    0.9384 H   0  0  0  0  0  0  0  0  0  0  0  0
   -0.2867    0.2415   -0.3885 H   0  0  0  0  0  0  0  0  0  0  0  0
   -4.2189   -1.2197    3.1904 H   0  0  0  0  0  0  0  0  0  0  0  0
   -5.6617   -0.8825    2.1987 H   0  0  0  0  0  0  0  0  0  0  0  0
   -5.3067   -2.6952    0.6867 H   0  0  0  0  0  0  0  0  0  0  0  0
   -5.2707   -3.2319    2.3571 H   0  0  0  0  0  0  0  0  0  0  0  0
   -2.6633   -2.8996    0.6682 H   0  0  0  0  0  0  0  0  0  0  0  0
   -2.8696   -3.4780    2.3124 H   0  0  0  0  0  0  0  0  0  0  0  0
   -2.6805   -5.3303    0.7704 H   0  0  0  0  0  0  0  0  0  0  0  0
   -4.1588   -5.2818    1.7889 H   0  0  0  0  0  0  0  0  0  0  0  0
   -4.6902   -6.0907   -0.4286 H   0  0  0  0  0  0  0  0  0  0  0  0
   -5.5261   -4.5344   -0.1232 H   0  0  0  0  0  0  0  0  0  0  0  0
   -3.0226   -2.3829   -3.8377 H   0  0  0  0  0  0  0  0  0  0  0  0
  1  2  1  0
  2  3  1  0
  3  4  1  0
  4  5  1  0
  5  6  1  0
  6  7  1  0
  7  8  1  0
  8  9  2  0
  8 10  1  0
 10 11  1  0
 11 12  1  0
 12 13  1  0
 13 14  1  0
 14 15  1  0
 15 16  1  0
 16 17  1  0
 17 18  2  0
 17 19  1  0
 19 20  1  0
 20 21  1  0
 21 22  1  0
 22 23  1  0
 23 24  1  0
 24 25  1  0
 25 26  1  0
 26 27  2  0
 26 28  1  0
  1 29  1  0
  2 30  1  0
  2 31  1  0
  3 32  1  0
  3 33  1  0
  4 34  1  0
  4 35  1  0
  5 36  1  0
  5 37  1  0
  6 38  1  0
  6 39  1  0
 11 40  1  0
 11 41  1  0
 12 42  1  0
 12 43  1  0
 13 44  1  0
 13 45  1  0
 14 46  1  0
 14 47  1  0
 15 48  1  0
 15 49  1  0
 20 50  1  0
 20 51  1  0
 21 52  1  0
 21 53  1  0
 22 54  1  0
 22 55  1  0
 23 56  1  0
 23 57  1  0
 24 58  1  0
 24 59  1  0
 28 60  1  0
M  END
