
     RDKit          3D

 59 61  0  0  0  0  0  0  0  0999 V2000
    1.3770   -0.3011    2.3620 C   0  0  0  0  0  0  0  0  0  0  0  0
    0.1503   -0.1547    3.1336 C   0  0  0  0  0  0  0  0  0  0  0  0
   -1.0478    0.5019    2.6971 C   0  0  0  0  0  0  0  0  0  0  0  0
   -1.0425    1.8901    2.5360 C   0  0  0  0  0  0  0  0  0  0  0  0
   -2.1779    2.6016    2.2270 C   0  0  0  0  0  0  0  0  0  0  0  0
   -3.3818    1.9598    2.0626 C   0  0  0  0  0  0  0  0  0  0  0  0
   -3.4296    0.5903    2.2134 C   0  0  0  0  0  0  0  0  0  0  0  0
   -2.2872   -0.1002    2.5215 C   0  0  0  0  0  0  0  0  0  0  0  0
    1.6316   -0.9237    1.1164 C   0  0  0  0  0  0  0  0  0  0  0  0
    1.2288   -0.7003   -0.2534 C   0  0  0  0  0  0  0  0  0  0  0  0
    1.5524    0.6589   -0.8597 C   0  0  0  0  0  0  0  0  0  0  0  0
    2.9943    0.9819   -0.8984 C   0  0  0  0  0  0  0  0  0  0  0  0
    3.6706    1.6689    0.0795 C   0  0  0  0  0  0  0  0  0  0  0  0
    5.0247    1.9394   -0.0013 C   0  0  0  0  0  0  0  0  0  0  0  0
    5.7728    1.5258   -1.0854 C   0  0  0  0  0  0  0  0  0  0  0  0
    5.1106    0.8343   -2.0784 C   0  0  0  0  0  0  0  0  0  0  0  0
    3.7603    0.5673   -1.9925 C   0  0  0  0  0  0  0  0  0  0  0  0
    0.2001   -1.4517   -0.9724 C   0  0  0  0  0  0  0  0  0  0  0  0
   -1.2043   -1.5978   -0.7592 C   0  0  0  0  0  0  0  0  0  0  0  0
   -2.1646   -0.4707   -0.8234 C   0  0  0  0  0  0  0  0  0  0  0  0
   -2.2290    0.1861   -2.1882 C   0  0  0  0  0  0  0  0  0  0  0  0
   -3.0748   -0.3594   -3.1604 C   0  0  0  0  0  0  0  0  0  0  0  0
   -3.1850    0.2079   -4.4143 C   0  0  0  0  0  0  0  0  0  0  0  0
   -2.4532    1.3345   -4.7287 C   0  0  0  0  0  0  0  0  0  0  0  0
   -1.6186    1.8762   -3.7746 C   0  0  0  0  0  0  0  0  0  0  0  0
   -1.5266    1.2895   -2.5276 C   0  0  0  0  0  0  0  0  0  0  0  0
   -1.6379   -2.5841    0.3092 C   0  0  0  0  0  0  0  0  0  0  0  0
    1.8766    0.7502    2.4619 H   0  0  0  0  0  0  0  0  0  0  0  0
    2.1091   -0.7910    3.1692 H   0  0  0  0  0  0  0  0  0  0  0  0
    0.3778    0.1754    4.2172 H   0  0  0  0  0  0  0  0  0  0  0  0
   -0.2017   -1.2418    3.3842 H   0  0  0  0  0  0  0  0  0  0  0  0
   -0.1027    2.4449    2.6581 H   0  0  0  0  0  0  0  0  0  0  0  0
   -2.0907    3.6888    2.1173 H   0  0  0  0  0  0  0  0  0  0  0  0
   -4.2442    2.5645    1.8202 H   0  0  0  0  0  0  0  0  0  0  0  0
   -4.3818    0.0898    2.0825 H   0  0  0  0  0  0  0  0  0  0  0  0
   -2.3710   -1.1632    2.6537 H   0  0  0  0  0  0  0  0  0  0  0  0
    2.8051   -1.1452    1.1476 H   0  0  0  0  0  0  0  0  0  0  0  0
    1.3614   -2.0573    1.2851 H   0  0  0  0  0  0  0  0  0  0  0  0
    2.1724   -1.2279   -0.8112 H   0  0  0  0  0  0  0  0  0  0  0  0
    1.2153    0.5780   -1.9182 H   0  0  0  0  0  0  0  0  0  0  0  0
    1.0629    1.5069   -0.4146 H   0  0  0  0  0  0  0  0  0  0  0  0
    3.1502    2.0222    0.9418 H   0  0  0  0  0  0  0  0  0  0  0  0
    5.5126    2.4928    0.8112 H   0  0  0  0  0  0  0  0  0  0  0  0
    6.8188    1.7609   -1.0997 H   0  0  0  0  0  0  0  0  0  0  0  0
    5.6901    0.5015   -2.9413 H   0  0  0  0  0  0  0  0  0  0  0  0
    3.3009    0.0274   -2.7923 H   0  0  0  0  0  0  0  0  0  0  0  0
    0.5771   -2.5489   -1.0451 H   0  0  0  0  0  0  0  0  0  0  0  0
    0.3718   -1.1581   -2.0812 H   0  0  0  0  0  0  0  0  0  0  0  0
   -1.5314   -2.2005   -1.7099 H   0  0  0  0  0  0  0  0  0  0  0  0
   -3.2012   -0.7400   -0.5908 H   0  0  0  0  0  0  0  0  0  0  0  0
   -1.9026    0.3892   -0.1771 H   0  0  0  0  0  0  0  0  0  0  0  0
   -3.6531   -1.2351   -2.9375 H   0  0  0  0  0  0  0  0  0  0  0  0
   -3.8631   -0.2632   -5.1342 H   0  0  0  0  0  0  0  0  0  0  0  0
   -2.5757    1.7389   -5.7236 H   0  0  0  0  0  0  0  0  0  0  0  0
   -1.0482    2.7632   -4.0354 H   0  0  0  0  0  0  0  0  0  0  0  0
   -0.8677    1.7638   -1.8207 H   0  0  0  0  0  0  0  0  0  0  0  0
   -1.0055   -2.4671    1.2354 H   0  0  0  0  0  0  0  0  0  0  0  0
   -1.6395   -3.6405   -0.0348 H   0  0  0  0  0  0  0  0  0  0  0  0
   -2.6744   -2.4164    0.6650 H   0  0  0  0  0  0  0  0  0  0  0  0
  1  2  1  0
  2  3  1  0
  3  4  2  0
  4  5  1  0
  5  6  2  0
  6  7  1  0
  7  8  2  0
  1  9  1  0
  9 10  1  0
 10 11  1  0
 11 12  1  0
 12 13  2  0
 13 14  1  0
 14 15  2  0
 15 16  1  0
 16 17  2  0
 10 18  1  0
 18 19  1  0
 19 20  1  0
 20 21  1  0
 21 22  2  0
 22 23  1  0
 23 24  2  0
 24 25  1  0
 25 26  2  0
 19 27  1  0
  8  3  1  0
 17 12  1  0
 26 21  1  0
  1 28  1  0
  1 29  1  0
  2 30  1  0
  2 31  1  0
  4 32  1  0
  5 33  1  0
  6 34  1  0
  7 35  1  0
  8 36  1  0
  9 37  1  0
  9 38  1  0
 10 39  1  0
 11 40  1  0
 11 41  1  0
 13 42  1  0
 14 43  1  0
 15 44  1  0
 16 45  1  0
 17 46  1  0
 18 47  1  0
 18 48  1  0
 19 49  1  0
 20 50  1  0
 20 51  1  0
 22 52  1  0
 23 53  1  0
 24 54  1  0
 25 55  1  0
 26 56  1  0
 27 57  1  0
 27 58  1  0
 27 59  1  0
M  END
