
     RDKit          3D

302307  0  0  0  0  0  0  0  0999 V2000
   -4.1872   -5.1731   -2.3078 C   0  0  0  0  0  0  0  0  0  0  0  0
   -3.0285   -5.5290   -3.1877 C   0  0  0  0  0  0  0  0  0  0  0  0
   -2.0606   -6.0708   -2.6476 O   0  0  0  0  0  0  0  0  0  0  0  0
   -3.1605   -5.2146   -4.5196 O   0  0  0  0  0  0  0  0  0  0  0  0
   -2.3348   -5.3968   -5.5059 O   0  0  0  0  0  0  0  0  0  0  0  0
   -1.2294   -6.1778   -5.2969 C   0  0  0  0  0  0  0  0  0  0  0  0
   -0.3331   -6.1643   -6.5543 C   0  0  0  0  0  0  0  0  0  0  0  0
    0.1379   -4.7439   -6.8492 C   0  0  0  0  0  0  0  0  0  0  0  0
    1.0002   -4.6453   -8.0701 C   0  0  0  0  0  0  0  0  0  0  0  0
    1.4386   -3.3367   -8.3759 O   0  0  0  0  0  0  0  0  0  0  0  0
    2.2306   -2.6255   -7.5204 C   0  0  0  0  0  0  0  0  0  0  0  0
    2.5574   -3.1967   -6.4339 O   0  0  0  0  0  0  0  0  0  0  0  0
    2.7271   -1.2816   -7.7407 C   0  0  0  0  0  0  0  0  0  0  0  0
    3.5258   -0.6980   -6.7477 C   0  0  0  0  0  0  0  0  0  0  0  0
    3.9908    0.6048   -6.8661 C   0  0  0  0  0  0  0  0  0  0  0  0
    3.6915    1.3953   -7.9673 C   0  0  0  0  0  0  0  0  0  0  0  0
    2.9010    0.8105   -8.9515 C   0  0  0  0  0  0  0  0  0  0  0  0
    2.4414   -0.4918   -8.8240 C   0  0  0  0  0  0  0  0  0  0  0  0
    4.0988    2.8048   -8.0431 C   0  0  0  0  0  0  0  0  0  0  0  0
    3.7812    3.4283   -9.1082 O   0  0  0  0  0  0  0  0  0  0  0  0
    4.7722    3.4648   -7.0574 O   0  0  0  0  0  0  0  0  0  0  0  0
    5.1127    4.8606   -7.1188 C   0  0  0  0  0  0  0  0  0  0  0  0
    5.9139    5.1472   -5.8254 C   0  0  0  0  0  0  0  0  0  0  0  0
    5.0550    4.6793   -4.7109 C   0  0  0  0  0  0  0  0  0  0  0  0
    5.6547    4.7800   -3.3175 C   0  0  0  0  0  0  0  0  0  0  0  0
    4.7654    4.0929   -2.4261 O   0  0  0  0  0  0  0  0  0  0  0  0
    5.1410    3.7369   -1.1139 C   0  0  0  0  0  0  0  0  0  0  0  0
    6.2471    4.0270   -0.6271 O   0  0  0  0  0  0  0  0  0  0  0  0
    4.1064    2.9542   -0.3957 C   0  0  0  0  0  0  0  0  0  0  0  0
    2.7763    3.0034   -0.6961 C   0  0  0  0  0  0  0  0  0  0  0  0
    1.9192    1.9921   -0.2415 C   0  0  0  0  0  0  0  0  0  0  0  0
    2.4675    0.9653    0.5026 C   0  0  0  0  0  0  0  0  0  0  0  0
    3.8083    0.9251    0.8143 C   0  0  0  0  0  0  0  0  0  0  0  0
    4.6591    1.9211    0.3754 C   0  0  0  0  0  0  0  0  0  0  0  0
    1.6204   -0.1468    0.8608 C   0  0  0  0  0  0  0  0  0  0  0  0
    2.1925   -1.2287    1.1854 O   0  0  0  0  0  0  0  0  0  0  0  0
    0.2420   -0.1630    0.8832 O   0  0  0  0  0  0  0  0  0  0  0  0
   -0.4051   -1.4514    1.1824 C   0  0  0  0  0  0  0  0  0  0  0  0
   -0.2691   -2.2727   -0.1064 C   0  0  0  0  0  0  0  0  0  0  0  0
   -1.1581   -1.6533   -1.1789 C   0  0  0  0  0  0  0  0  0  0  0  0
   -0.9707   -0.2104   -1.4128 C   0  0  0  0  0  0  0  0  0  0  0  0
   -1.7857    0.3554   -2.4527 O   0  0  0  0  0  0  0  0  0  0  0  0
   -3.1536    0.2471   -2.4001 C   0  0  0  0  0  0  0  0  0  0  0  0
   -3.7895   -0.3629   -1.4926 O   0  0  0  0  0  0  0  0  0  0  0  0
   -3.9848    0.8656   -3.4429 C   0  0  0  0  0  0  0  0  0  0  0  0
   -5.3497    0.6878   -3.4804 C   0  0  0  0  0  0  0  0  0  0  0  0
   -6.0519    1.3667   -4.4409 C   0  0  0  0  0  0  0  0  0  0  0  0
   -5.4620    2.2227   -5.3683 C   0  0  0  0  0  0  0  0  0  0  0  0
   -4.1078    2.3964   -5.3297 C   0  0  0  0  0  0  0  0  0  0  0  0
   -3.3947    1.7116   -4.3652 C   0  0  0  0  0  0  0  0  0  0  0  0
   -6.3273    2.9445   -6.3456 C   0  0  0  0  0  0  0  0  0  0  0  0
   -5.8664    3.7726   -7.1482 O   0  0  0  0  0  0  0  0  0  0  0  0
   -7.6277    2.6798   -6.3314 O   0  0  0  0  0  0  0  0  0  0  0  0
   -8.7846    3.0613   -6.9603 C   0  0  0  0  0  0  0  0  0  0  0  0
   -9.8074    2.0236   -6.2798 C   0  0  0  0  0  0  0  0  0  0  0  0
   -9.3087    0.7102   -6.7671 C   0  0  0  0  0  0  0  0  0  0  0  0
   -9.9217   -0.5263   -6.0719 C   0  0  0  0  0  0  0  0  0  0  0  0
   -9.4870   -0.4617   -4.7441 O   0  0  0  0  0  0  0  0  0  0  0  0
   -9.5207   -1.3424   -3.7394 C   0  0  0  0  0  0  0  0  0  0  0  0
  -10.0165   -2.4711   -3.8967 O   0  0  0  0  0  0  0  0  0  0  0  0
   -8.9143   -0.8954   -2.4509 C   0  0  0  0  0  0  0  0  0  0  0  0
   -8.6831    0.4716   -2.2504 C   0  0  0  0  0  0  0  0  0  0  0  0
   -8.0279    0.9495   -1.1536 C   0  0  0  0  0  0  0  0  0  0  0  0
   -7.5652    0.0779   -0.1967 C   0  0  0  0  0  0  0  0  0  0  0  0
   -7.7879   -1.2700   -0.3786 C   0  0  0  0  0  0  0  0  0  0  0  0
   -8.4592   -1.7546   -1.5010 C   0  0  0  0  0  0  0  0  0  0  0  0
   -6.9450    0.6375    0.9761 C   0  0  0  0  0  0  0  0  0  0  0  0
   -7.0340    1.8876    1.2188 O   0  0  0  0  0  0  0  0  0  0  0  0
   -6.2073   -0.0723    1.9314 O   0  0  0  0  0  0  0  0  0  0  0  0
   -5.7416    0.6867    3.0388 C   0  0  0  0  0  0  0  0  0  0  0  0
   -4.8712   -0.0313    3.9844 C   0  0  0  0  0  0  0  0  0  0  0  0
   -3.4712   -0.3210    3.4538 C   0  0  0  0  0  0  0  0  0  0  0  0
   -2.7291   -1.0806    4.5501 C   0  0  0  0  0  0  0  0  0  0  0  0
   -1.3708   -1.2175    4.2789 O   0  0  0  0  0  0  0  0  0  0  0  0
   -0.6935   -2.0567    5.2227 C   0  0  0  0  0  0  0  0  0  0  0  0
   -1.4399   -2.5488    6.0783 O   0  0  0  0  0  0  0  0  0  0  0  0
    0.7358   -2.2699    5.1391 C   0  0  0  0  0  0  0  0  0  0  0  0
    1.6141   -1.5932    4.3633 C   0  0  0  0  0  0  0  0  0  0  0  0
    2.9773   -1.7964    4.3259 C   0  0  0  0  0  0  0  0  0  0  0  0
    3.4512   -2.7869    5.1750 C   0  0  0  0  0  0  0  0  0  0  0  0
    2.6171   -3.5273    5.9959 C   0  0  0  0  0  0  0  0  0  0  0  0
    1.2656   -3.2565    5.9666 C   0  0  0  0  0  0  0  0  0  0  0  0
    4.9036   -3.0015    5.3748 C   0  0  0  0  0  0  0  0  0  0  0  0
    5.3108   -3.9698    6.0569 O   0  0  0  0  0  0  0  0  0  0  0  0
    5.7543   -2.0650    4.7831 O   0  0  0  0  0  0  0  0  0  0  0  0
    7.1615   -2.2205    5.0355 C   0  0  0  0  0  0  0  0  0  0  0  0
    7.9005   -1.0105    4.4626 C   0  0  0  0  0  0  0  0  0  0  0  0
    7.1948    0.1816    5.0099 C   0  0  0  0  0  0  0  0  0  0  0  0
    7.7727    1.5331    4.7326 C   0  0  0  0  0  0  0  0  0  0  0  0
    6.7673    2.4403    5.2513 O   0  0  0  0  0  0  0  0  0  0  0  0
    6.9714    3.7925    5.3262 C   0  0  0  0  0  0  0  0  0  0  0  0
    8.0102    4.3298    4.9418 O   0  0  0  0  0  0  0  0  0  0  0  0
    5.8281    4.5494    5.9100 C   0  0  0  0  0  0  0  0  0  0  0  0
    5.8072    5.9173    5.9460 C   0  0  0  0  0  0  0  0  0  0  0  0
    4.7458    6.5774    6.5496 C   0  0  0  0  0  0  0  0  0  0  0  0
    3.6810    5.8907    7.1314 C   0  0  0  0  0  0  0  0  0  0  0  0
    3.7302    4.5277    7.0767 C   0  0  0  0  0  0  0  0  0  0  0  0
    4.7686    3.8490    6.4854 C   0  0  0  0  0  0  0  0  0  0  0  0
    2.5767    6.6061    7.7723 C   0  0  0  0  0  0  0  0  0  0  0  0
    1.7112    5.8785    8.3762 O   0  0  0  0  0  0  0  0  0  0  0  0
    2.4982    7.9520    7.7179 O   0  0  0  0  0  0  0  0  0  0  0  0
    1.5086    8.7047    8.3160 C   0  0  0  0  0  0  0  0  0  0  0  0
    0.0984    8.4131    7.9852 C   0  0  0  0  0  0  0  0  0  0  0  0
   -0.2770    8.5272    6.5520 C   0  0  0  0  0  0  0  0  0  0  0  0
   -1.7620    8.2833    6.4246 C   0  0  0  0  0  0  0  0  0  0  0  0
   -2.2273    7.0358    6.8066 O   0  0  0  0  0  0  0  0  0  0  0  0
   -1.8841    5.8410    6.2153 C   0  0  0  0  0  0  0  0  0  0  0  0
   -1.0662    5.9103    5.2408 O   0  0  0  0  0  0  0  0  0  0  0  0
   -2.4315    4.5155    6.6699 C   0  0  0  0  0  0  0  0  0  0  0  0
   -3.9006    4.4438    6.4471 C   0  0  0  0  0  0  0  0  0  0  0  0
   -4.5290    3.0835    6.8081 C   0  0  0  0  0  0  0  0  0  0  0  0
   -5.9798    3.2074    6.5355 C   0  0  0  0  0  0  0  0  0  0  0  0
   -6.7909    2.0024    6.7121 C   0  0  0  0  0  0  0  0  0  0  0  0
   -8.0673    2.1731    6.6894 O   0  0  0  0  0  0  0  0  0  0  0  0
   -6.3734    0.7126    6.8940 O   0  0  0  0  0  0  0  0  0  0  0  0
   -7.2730   -0.3908    7.0225 C   0  0  0  0  0  0  0  0  0  0  0  0
   -6.4980   -1.6669    7.1338 C   0  0  0  0  0  0  0  0  0  0  0  0
   -7.4069   -2.8850    7.2013 C   0  0  0  0  0  0  0  0  0  0  0  0
   -6.5666   -4.1094    7.3013 C   0  0  0  0  0  0  0  0  0  0  0  0
   -5.6771   -4.2752    6.1768 O   0  0  0  0  0  0  0  0  0  0  0  0
   -4.8055   -5.3486    6.1683 C   0  0  0  0  0  0  0  0  0  0  0  0
   -4.8952   -6.1056    7.2155 O   0  0  0  0  0  0  0  0  0  0  0  0
   -3.8227   -5.7395    5.1808 C   0  0  0  0  0  0  0  0  0  0  0  0
   -3.9417   -5.2493    3.7812 C   0  0  0  0  0  0  0  0  0  0  0  0
   -2.7971   -5.8036    2.9174 C   0  0  0  0  0  0  0  0  0  0  0  0
   -1.4430   -5.3801    3.3829 C   0  0  0  0  0  0  0  0  0  0  0  0
   -0.3217   -6.0226    2.5792 C   0  0  0  0  0  0  0  0  0  0  0  0
   -0.5582   -6.7677    1.6026 O   0  0  0  0  0  0  0  0  0  0  0  0
    0.9388   -5.7813    2.9587 O   0  0  0  0  0  0  0  0  0  0  0  0
    2.1788   -6.1414    2.6133 C   0  0  0  0  0  0  0  0  0  0  0  0
    2.7538   -5.9187    1.2304 C   0  0  0  0  0  0  0  0  0  0  0  0
    4.1779   -6.4396    1.2149 C   0  0  0  0  0  0  0  0  0  0  0  0
    4.9448   -6.3948   -0.0215 C   0  0  0  0  0  0  0  0  0  0  0  0
    5.1859   -5.1586   -0.6344 O   0  0  0  0  0  0  0  0  0  0  0  0
    6.0092   -5.1202   -1.7864 C   0  0  0  0  0  0  0  0  0  0  0  0
    6.4671   -6.2091   -2.1629 O   0  0  0  0  0  0  0  0  0  0  0  0
    6.2125   -3.8099   -2.3846 C   0  0  0  0  0  0  0  0  0  0  0  0
    7.1271   -3.7405   -3.5512 C   0  0  0  0  0  0  0  0  0  0  0  0
    8.5631   -4.0971   -3.2952 C   0  0  0  0  0  0  0  0  0  0  0  0
    9.2210   -3.2027   -2.3008 C   0  0  0  0  0  0  0  0  0  0  0  0
    9.2796   -1.7750   -2.6712 C   0  0  0  0  0  0  0  0  0  0  0  0
   10.3668   -1.1124   -2.6094 O   0  0  0  0  0  0  0  0  0  0  0  0
    8.1734   -1.0880   -3.0962 O   0  0  0  0  0  0  0  0  0  0  0  0
    8.0261    0.2574   -3.4622 C   0  0  0  0  0  0  0  0  0  0  0  0
    6.5375    0.4102   -3.8915 C   0  0  0  0  0  0  0  0  0  0  0  0
    5.6817   -0.0198   -2.7103 C   0  0  0  0  0  0  0  0  0  0  0  0
    4.2508   -0.0437   -2.9737 C   0  0  0  0  0  0  0  0  0  0  0  0
    3.5816    1.1647   -3.2858 O   0  0  0  0  0  0  0  0  0  0  0  0
    2.1985    1.0204   -3.6104 C   0  0  0  0  0  0  0  0  0  0  0  0
    1.8076   -0.1722   -3.5971 O   0  0  0  0  0  0  0  0  0  0  0  0
    1.2958    2.0899   -3.9158 C   0  0  0  0  0  0  0  0  0  0  0  0
    1.5050    2.9376   -5.1155 C   0  0  0  0  0  0  0  0  0  0  0  0
    0.3600    3.9607   -5.0690 C   0  0  0  0  0  0  0  0  0  0  0  0
    0.3576    4.9389   -6.1702 C   0  0  0  0  0  0  0  0  0  0  0  0
    0.2213    4.2026   -7.4639 C   0  0  0  0  0  0  0  0  0  0  0  0
    0.9905    4.2906   -8.4214 O   0  0  0  0  0  0  0  0  0  0  0  0
   -0.8729    3.3534   -7.5737 O   0  0  0  0  0  0  0  0  0  0  0  0
   -1.0779    2.6220   -8.7334 C   0  0  0  0  0  0  0  0  0  0  0  0
   -0.2544    2.7453   -9.6676 O   0  0  0  0  0  0  0  0  0  0  0  0
   -2.2644    1.7380   -8.8004 C   0  0  0  0  0  0  0  0  0  0  0  0
   -3.7894   -4.9041   -1.2824 H   0  0  0  0  0  0  0  0  0  0  0  0
   -4.7007   -4.3004   -2.7520 H   0  0  0  0  0  0  0  0  0  0  0  0
   -4.9021   -5.9810   -2.1684 H   0  0  0  0  0  0  0  0  0  0  0  0
   -1.5128   -7.2320   -5.1132 H   0  0  0  0  0  0  0  0  0  0  0  0
   -0.6555   -5.8399   -4.4236 H   0  0  0  0  0  0  0  0  0  0  0  0
   -0.9355   -6.5406   -7.3859 H   0  0  0  0  0  0  0  0  0  0  0  0
    0.5680   -6.7645   -6.3531 H   0  0  0  0  0  0  0  0  0  0  0  0
   -0.7327   -4.0653   -6.9063 H   0  0  0  0  0  0  0  0  0  0  0  0
    0.7003   -4.4378   -5.9439 H   0  0  0  0  0  0  0  0  0  0  0  0
    0.4347   -5.0185   -8.9446 H   0  0  0  0  0  0  0  0  0  0  0  0
    1.8966   -5.2985   -7.8509 H   0  0  0  0  0  0  0  0  0  0  0  0
    3.7854   -1.2703   -5.8974 H   0  0  0  0  0  0  0  0  0  0  0  0
    4.6120    1.0183   -6.0732 H   0  0  0  0  0  0  0  0  0  0  0  0
    2.6348    1.4072   -9.8344 H   0  0  0  0  0  0  0  0  0  0  0  0
    1.8351   -0.9347   -9.6068 H   0  0  0  0  0  0  0  0  0  0  0  0
    4.1964    5.4671   -7.1125 H   0  0  0  0  0  0  0  0  0  0  0  0
    5.6849    5.0804   -8.0215 H   0  0  0  0  0  0  0  0  0  0  0  0
    6.9164    4.7271   -5.8648 H   0  0  0  0  0  0  0  0  0  0  0  0
    5.9968    6.2704   -5.7677 H   0  0  0  0  0  0  0  0  0  0  0  0
    4.8297    3.6124   -4.8806 H   0  0  0  0  0  0  0  0  0  0  0  0
    4.0960    5.2394   -4.7778 H   0  0  0  0  0  0  0  0  0  0  0  0
    5.6227    5.8613   -3.0338 H   0  0  0  0  0  0  0  0  0  0  0  0
    6.6830    4.4455   -3.2683 H   0  0  0  0  0  0  0  0  0  0  0  0
    2.4147    3.8469   -1.2748 H   0  0  0  0  0  0  0  0  0  0  0  0
    0.8940    2.0914   -0.5079 H   0  0  0  0  0  0  0  0  0  0  0  0
    4.2640    0.1338    1.4125 H   0  0  0  0  0  0  0  0  0  0  0  0
    5.7179    1.9299    0.6126 H   0  0  0  0  0  0  0  0  0  0  0  0
   -1.4157   -1.2641    1.4822 H   0  0  0  0  0  0  0  0  0  0  0  0
    0.1952   -1.9152    1.9503 H   0  0  0  0  0  0  0  0  0  0  0  0
    0.7822   -2.3499   -0.3901 H   0  0  0  0  0  0  0  0  0  0  0  0
   -0.6755   -3.2677    0.1007 H   0  0  0  0  0  0  0  0  0  0  0  0
   -2.2031   -1.9138   -0.8921 H   0  0  0  0  0  0  0  0  0  0  0  0
   -0.9374   -2.2589   -2.1068 H   0  0  0  0  0  0  0  0  0  0  0  0
    0.0513    0.1315   -1.5679 H   0  0  0  0  0  0  0  0  0  0  0  0
   -1.3304    0.2937   -0.4469 H   0  0  0  0  0  0  0  0  0  0  0  0
   -5.7978    0.0311   -2.7499 H   0  0  0  0  0  0  0  0  0  0  0  0
   -7.1221    1.2552   -4.5239 H   0  0  0  0  0  0  0  0  0  0  0  0
   -3.6544    3.0498   -6.0403 H   0  0  0  0  0  0  0  0  0  0  0  0
   -2.3329    1.8140   -4.3109 H   0  0  0  0  0  0  0  0  0  0  0  0
   -9.1813    4.0613   -6.7623 H   0  0  0  0  0  0  0  0  0  0  0  0
   -8.8855    2.8136   -8.0271 H   0  0  0  0  0  0  0  0  0  0  0  0
  -10.7730    2.3316   -6.6770 H   0  0  0  0  0  0  0  0  0  0  0  0
   -9.6304    2.1530   -5.2235 H   0  0  0  0  0  0  0  0  0  0  0  0
   -8.2112    0.6020   -6.6107 H   0  0  0  0  0  0  0  0  0  0  0  0
   -9.5102    0.5775   -7.8472 H   0  0  0  0  0  0  0  0  0  0  0  0
   -9.5790   -1.4127   -6.6115 H   0  0  0  0  0  0  0  0  0  0  0  0
  -11.0149   -0.4296   -6.1626 H   0  0  0  0  0  0  0  0  0  0  0  0
   -9.0631    1.1287   -3.0281 H   0  0  0  0  0  0  0  0  0  0  0  0
   -7.8646    2.0089   -1.0454 H   0  0  0  0  0  0  0  0  0  0  0  0
   -7.4337   -1.9693    0.3673 H   0  0  0  0  0  0  0  0  0  0  0  0
   -8.6225   -2.8311   -1.6271 H   0  0  0  0  0  0  0  0  0  0  0  0
   -6.6492    1.1376    3.5246 H   0  0  0  0  0  0  0  0  0  0  0  0
   -5.1587    1.5808    2.6745 H   0  0  0  0  0  0  0  0  0  0  0  0
   -4.7118    0.5874    4.8731 H   0  0  0  0  0  0  0  0  0  0  0  0
   -5.3829   -1.0076    4.2268 H   0  0  0  0  0  0  0  0  0  0  0  0
   -2.9335    0.6270    3.3274 H   0  0  0  0  0  0  0  0  0  0  0  0
   -3.5749   -0.9233    2.5532 H   0  0  0  0  0  0  0  0  0  0  0  0
   -3.1450   -2.1073    4.6525 H   0  0  0  0  0  0  0  0  0  0  0  0
   -2.9099   -0.5062    5.5142 H   0  0  0  0  0  0  0  0  0  0  0  0
    1.2133   -0.8018    3.7219 H   0  0  0  0  0  0  0  0  0  0  0  0
    3.6411   -1.2364    3.6851 H   0  0  0  0  0  0  0  0  0  0  0  0
    3.0089   -4.2933    6.6328 H   0  0  0  0  0  0  0  0  0  0  0  0
    0.6250   -3.8526    6.6207 H   0  0  0  0  0  0  0  0  0  0  0  0
    7.3135   -2.2025    6.1201 H   0  0  0  0  0  0  0  0  0  0  0  0
    7.5438   -3.1427    4.5967 H   0  0  0  0  0  0  0  0  0  0  0  0
    8.9375   -1.0500    4.8991 H   0  0  0  0  0  0  0  0  0  0  0  0
    8.0225   -1.0167    3.3944 H   0  0  0  0  0  0  0  0  0  0  0  0
    6.1301    0.1356    4.5924 H   0  0  0  0  0  0  0  0  0  0  0  0
    7.0779    0.0495    6.1164 H   0  0  0  0  0  0  0  0  0  0  0  0
    7.9853    1.7392    3.6910 H   0  0  0  0  0  0  0  0  0  0  0  0
    8.6632    1.7167    5.3591 H   0  0  0  0  0  0  0  0  0  0  0  0
    6.6264    6.4747    5.5095 H   0  0  0  0  0  0  0  0  0  0  0  0
    4.7291    7.6663    6.5755 H   0  0  0  0  0  0  0  0  0  0  0  0
    2.9282    3.9404    7.5084 H   0  0  0  0  0  0  0  0  0  0  0  0
    4.7580    2.7755    6.4787 H   0  0  0  0  0  0  0  0  0  0  0  0
    1.7327    9.8033    8.1664 H   0  0  0  0  0  0  0  0  0  0  0  0
    1.6240    8.5631    9.4292 H   0  0  0  0  0  0  0  0  0  0  0  0
   -0.2003    7.4295    8.4251 H   0  0  0  0  0  0  0  0  0  0  0  0
   -0.5259    9.1731    8.5400 H   0  0  0  0  0  0  0  0  0  0  0  0
    0.3007    7.7522    5.9853 H   0  0  0  0  0  0  0  0  0  0  0  0
    0.0256    9.4927    6.1280 H   0  0  0  0  0  0  0  0  0  0  0  0
   -2.2407    9.0547    7.0957 H   0  0  0  0  0  0  0  0  0  0  0  0
   -2.0310    8.5475    5.3689 H   0  0  0  0  0  0  0  0  0  0  0  0
   -2.1041    4.2886    7.6959 H   0  0  0  0  0  0  0  0  0  0  0  0
   -1.9643    3.7239    6.0156 H   0  0  0  0  0  0  0  0  0  0  0  0
   -4.4457    5.1817    7.0695 H   0  0  0  0  0  0  0  0  0  0  0  0
   -4.1656    4.6252    5.3800 H   0  0  0  0  0  0  0  0  0  0  0  0
   -4.3198    2.9524    7.8957 H   0  0  0  0  0  0  0  0  0  0  0  0
   -3.9974    2.2869    6.2737 H   0  0  0  0  0  0  0  0  0  0  0  0
   -6.0855    3.6220    5.4855 H   0  0  0  0  0  0  0  0  0  0  0  0
   -6.3867    4.0145    7.1810 H   0  0  0  0  0  0  0  0  0  0  0  0
   -7.9261   -0.4686    6.1493 H   0  0  0  0  0  0  0  0  0  0  0  0
   -7.8291   -0.2152    7.9698 H   0  0  0  0  0  0  0  0  0  0  0  0
   -5.9673   -1.6635    8.1421 H   0  0  0  0  0  0  0  0  0  0  0  0
   -5.7167   -1.7853    6.3893 H   0  0  0  0  0  0  0  0  0  0  0  0
   -8.0010   -2.7335    8.1374 H   0  0  0  0  0  0  0  0  0  0  0  0
   -8.1476   -2.9060    6.3831 H   0  0  0  0  0  0  0  0  0  0  0  0
   -5.9087   -4.1130    8.1890 H   0  0  0  0  0  0  0  0  0  0  0  0
   -7.2170   -4.9930    7.4069 H   0  0  0  0  0  0  0  0  0  0  0  0
   -2.7875   -5.4765    5.6039 H   0  0  0  0  0  0  0  0  0  0  0  0
   -3.7561   -6.8706    5.1633 H   0  0  0  0  0  0  0  0  0  0  0  0
   -4.9217   -5.5064    3.3186 H   0  0  0  0  0  0  0  0  0  0  0  0
   -3.8635   -4.1584    3.7380 H   0  0  0  0  0  0  0  0  0  0  0  0
   -2.9741   -5.4185    1.8844 H   0  0  0  0  0  0  0  0  0  0  0  0
   -2.9400   -6.9025    2.9371 H   0  0  0  0  0  0  0  0  0  0  0  0
   -1.3129   -4.2914    3.4255 H   0  0  0  0  0  0  0  0  0  0  0  0
   -1.2570   -5.7587    4.4104 H   0  0  0  0  0  0  0  0  0  0  0  0
    2.9456   -5.7403    3.3502 H   0  0  0  0  0  0  0  0  0  0  0  0
    2.3546   -7.2861    2.7884 H   0  0  0  0  0  0  0  0  0  0  0  0
    2.1591   -6.4724    0.4760 H   0  0  0  0  0  0  0  0  0  0  0  0
    2.7758   -4.8388    1.0411 H   0  0  0  0  0  0  0  0  0  0  0  0
    4.1425   -7.5172    1.5566 H   0  0  0  0  0  0  0  0  0  0  0  0
    4.7759   -5.9319    2.0192 H   0  0  0  0  0  0  0  0  0  0  0  0
    5.9576   -6.8736    0.1736 H   0  0  0  0  0  0  0  0  0  0  0  0
    4.4421   -7.0480   -0.7966 H   0  0  0  0  0  0  0  0  0  0  0  0
    6.5232   -3.1185   -1.5489 H   0  0  0  0  0  0  0  0  0  0  0  0
    5.2251   -3.3850   -2.7218 H   0  0  0  0  0  0  0  0  0  0  0  0
    6.7610   -4.5233   -4.2839 H   0  0  0  0  0  0  0  0  0  0  0  0
    7.0607   -2.7975   -4.1373 H   0  0  0  0  0  0  0  0  0  0  0  0
    8.7420   -5.1344   -3.0211 H   0  0  0  0  0  0  0  0  0  0  0  0
    9.0871   -3.9274   -4.2797 H   0  0  0  0  0  0  0  0  0  0  0  0
   10.2764   -3.5600   -2.1652 H   0  0  0  0  0  0  0  0  0  0  0  0
    8.7668   -3.3419   -1.2760 H   0  0  0  0  0  0  0  0  0  0  0  0
    8.6838    0.4783   -4.3221 H   0  0  0  0  0  0  0  0  0  0  0  0
    8.2784    0.8964   -2.6244 H   0  0  0  0  0  0  0  0  0  0  0  0
    6.3357    1.4661   -4.0759 H   0  0  0  0  0  0  0  0  0  0  0  0
    6.3649   -0.2131   -4.7724 H   0  0  0  0  0  0  0  0  0  0  0  0
    5.9050    0.6587   -1.8387 H   0  0  0  0  0  0  0  0  0  0  0  0
    6.1017   -0.9896   -2.3925 H   0  0  0  0  0  0  0  0  0  0  0  0
    3.7629   -0.3707   -1.9737 H   0  0  0  0  0  0  0  0  0  0  0  0
    3.9087   -0.8919   -3.6276 H   0  0  0  0  0  0  0  0  0  0  0  0
    1.2327    2.7998   -3.0371 H   0  0  0  0  0  0  0  0  0  0  0  0
    0.2283    1.6628   -4.0507 H   0  0  0  0  0  0  0  0  0  0  0  0
    1.6101    2.4385   -6.0696 H   0  0  0  0  0  0  0  0  0  0  0  0
    2.4303    3.5551   -4.9494 H   0  0  0  0  0  0  0  0  0  0  0  0
   -0.6230    3.4356   -4.9301 H   0  0  0  0  0  0  0  0  0  0  0  0
    0.5149    4.5091   -4.0914 H   0  0  0  0  0  0  0  0  0  0  0  0
    1.2504    5.6000   -6.1866 H   0  0  0  0  0  0  0  0  0  0  0  0
   -0.5462    5.6072   -6.1197 H   0  0  0  0  0  0  0  0  0  0  0  0
   -3.0066    1.9922   -8.0286 H   0  0  0  0  0  0  0  0  0  0  0  0
   -2.7473    1.8060   -9.7918 H   0  0  0  0  0  0  0  0  0  0  0  0
   -1.9234    0.6778   -8.6893 H   0  0  0  0  0  0  0  0  0  0  0  0
  1  2  1  0
  2  3  2  0
  2  4  1  0
  4  5  1  0
  5  6  1  0
  6  7  1  0
  7  8  1  0
  8  9  1  0
  9 10  1  0
 10 11  1  0
 11 12  2  0
 11 13  1  0
 13 14  2  0
 14 15  1  0
 15 16  2  0
 16 17  1  0
 17 18  2  0
 16 19  1  0
 19 20  2  0
 19 21  1  0
 21 22  1  0
 22 23  1  0
 23 24  1  0
 24 25  1  0
 25 26  1  0
 26 27  1  0
 27 28  2  0
 27 29  1  0
 29 30  2  0
 30 31  1  0
 31 32  2  0
 32 33  1  0
 33 34  2  0
 32 35  1  0
 35 36  2  0
 35 37  1  0
 37 38  1  0
 38 39  1  0
 39 40  1  0
 40 41  1  0
 41 42  1  0
 42 43  1  0
 43 44  2  0
 43 45  1  0
 45 46  2  0
 46 47  1  0
 47 48  2  0
 48 49  1  0
 49 50  2  0
 48 51  1  0
 51 52  2  0
 51 53  1  0
 53 54  1  0
 54 55  1  0
 55 56  1  0
 56 57  1  0
 57 58  1  0
 58 59  1  0
 59 60  2  0
 59 61  1  0
 61 62  2  0
 62 63  1  0
 63 64  2  0
 64 65  1  0
 65 66  2  0
 64 67  1  0
 67 68  2  0
 67 69  1  0
 69 70  1  0
 70 71  1  0
 71 72  1  0
 72 73  1  0
 73 74  1  0
 74 75  1  0
 75 76  2  0
 75 77  1  0
 77 78  2  0
 78 79  1  0
 79 80  2  0
 80 81  1  0
 81 82  2  0
 80 83  1  0
 83 84  2  0
 83 85  1  0
 85 86  1  0
 86 87  1  0
 87 88  1  0
 88 89  1  0
 89 90  1  0
 90 91  1  0
 91 92  2  0
 91 93  1  0
 93 94  2  0
 94 95  1  0
 95 96  2  0
 96 97  1  0
 97 98  2  0
 96 99  1  0
 99100  2  0
 99101  1  0
101102  1  0
102103  1  0
103104  1  0
104105  1  0
105106  1  0
106107  1  0
107108  2  0
107109  1  0
109110  1  0
110111  1  0
111112  1  0
112113  1  0
113114  2  0
113115  1  0
115116  1  0
116117  1  0
117118  1  0
118119  1  0
119120  1  0
120121  1  0
121122  2  0
121123  1  0
123124  1  0
124125  1  0
125126  1  0
126127  1  0
127128  2  0
127129  1  0
129130  1  0
130131  1  0
131132  1  0
132133  1  0
133134  1  0
134135  1  0
135136  2  0
135137  1  0
137138  1  0
138139  1  0
139140  1  0
140141  1  0
141142  2  0
141143  1  0
143144  1  0
144145  1  0
145146  1  0
146147  1  0
147148  1  0
148149  1  0
149150  2  0
149151  1  0
151152  1  0
152153  1  0
153154  1  0
154155  1  0
155156  2  0
155157  1  0
157158  1  0
158159  2  0
158160  1  0
 18 13  1  0
 34 29  1  0
 50 45  1  0
 66 61  1  0
 82 77  1  0
 98 93  1  0
  1161  1  0
  1162  1  0
  1163  1  0
  6164  1  0
  6165  1  0
  7166  1  0
  7167  1  0
  8168  1  0
  8169  1  0
  9170  1  0
  9171  1  0
 14172  1  0
 15173  1  0
 17174  1  0
 18175  1  0
 22176  1  0
 22177  1  0
 23178  1  0
 23179  1  0
 24180  1  0
 24181  1  0
 25182  1  0
 25183  1  0
 30184  1  0
 31185  1  0
 33186  1  0
 34187  1  0
 38188  1  0
 38189  1  0
 39190  1  0
 39191  1  0
 40192  1  0
 40193  1  0
 41194  1  0
 41195  1  0
 46196  1  0
 47197  1  0
 49198  1  0
 50199  1  0
 54200  1  0
 54201  1  0
 55202  1  0
 55203  1  0
 56204  1  0
 56205  1  0
 57206  1  0
 57207  1  0
 62208  1  0
 63209  1  0
 65210  1  0
 66211  1  0
 70212  1  0
 70213  1  0
 71214  1  0
 71215  1  0
 72216  1  0
 72217  1  0
 73218  1  0
 73219  1  0
 78220  1  0
 79221  1  0
 81222  1  0
 82223  1  0
 86224  1  0
 86225  1  0
 87226  1  0
 87227  1  0
 88228  1  0
 88229  1  0
 89230  1  0
 89231  1  0
 94232  1  0
 95233  1  0
 97234  1  0
 98235  1  0
102236  1  0
102237  1  0
103238  1  0
103239  1  0
104240  1  0
104241  1  0
105242  1  0
105243  1  0
109244  1  0
109245  1  0
110246  1  0
110247  1  0
111248  1  0
111249  1  0
112250  1  0
112251  1  0
116252  1  0
116253  1  0
117254  1  0
117255  1  0
118256  1  0
118257  1  0
119258  1  0
119259  1  0
123260  1  0
123261  1  0
124262  1  0
124263  1  0
125264  1  0
125265  1  0
126266  1  0
126267  1  0
130268  1  0
130269  1  0
131270  1  0
131271  1  0
132272  1  0
132273  1  0
133274  1  0
133275  1  0
137276  1  0
137277  1  0
138278  1  0
138279  1  0
139280  1  0
139281  1  0
140282  1  0
140283  1  0
144284  1  0
144285  1  0
145286  1  0
145287  1  0
146288  1  0
146289  1  0
147290  1  0
147291  1  0
151292  1  0
151293  1  0
152294  1  0
152295  1  0
153296  1  0
153297  1  0
154298  1  0
154299  1  0
160300  1  0
160301  1  0
160302  1  0
M  END
$$$$
