
     RDKit          3D

193192  0  0  0  0  0  0  0  0999 V2000
    1.9837   -0.9790    6.4223 N   0  0  0  0  0  0  0  0  0  0  0  0
    2.5347    0.2574    5.8443 C   0  0  0  0  0  0  0  0  0  0  0  0
    2.1337    0.2718    4.3936 C   0  0  0  0  0  0  0  0  0  0  0  0
    2.6219    1.4962    3.6474 C   0  0  0  0  0  0  0  0  0  0  0  0
    2.0964    2.7816    4.2271 C   0  0  0  0  0  0  0  0  0  0  0  0
    2.6570    3.9166    3.3629 C   0  0  0  0  0  0  0  0  0  0  0  0
    2.1968    5.2233    3.8441 C   0  0  0  0  0  0  0  0  0  0  0  0
    1.5678    5.2359    4.9499 O   0  0  0  0  0  0  0  0  0  0  0  0
    2.3756    6.4638    3.2074 N   0  0  0  0  0  0  0  0  0  0  0  0
    1.8677    7.6921    3.7883 C   0  0  0  0  0  0  0  0  0  0  0  0
    0.3834    7.6457    4.0093 C   0  0  0  0  0  0  0  0  0  0  0  0
   -0.4244    7.3945    2.7839 C   0  0  0  0  0  0  0  0  0  0  0  0
   -0.3187    8.4540    1.7183 C   0  0  0  0  0  0  0  0  0  0  0  0
   -1.1404    8.0191    0.5176 C   0  0  0  0  0  0  0  0  0  0  0  0
   -0.5650    6.7928   -0.1013 C   0  0  0  0  0  0  0  0  0  0  0  0
    0.6298    6.5176    0.2715 O   0  0  0  0  0  0  0  0  0  0  0  0
   -1.2601    5.9755   -1.0329 N   0  0  0  0  0  0  0  0  0  0  0  0
   -0.5599    4.8149   -1.5427 C   0  0  0  0  0  0  0  0  0  0  0  0
   -0.2201    3.8728   -0.4489 C   0  0  0  0  0  0  0  0  0  0  0  0
    0.5724    2.6447   -0.8879 C   0  0  0  0  0  0  0  0  0  0  0  0
    1.8732    3.0354   -1.5098 C   0  0  0  0  0  0  0  0  0  0  0  0
    2.7549    1.8658   -1.9228 C   0  0  0  0  0  0  0  0  0  0  0  0
    3.9745    2.4949   -2.4936 C   0  0  0  0  0  0  0  0  0  0  0  0
    3.9108    3.7136   -2.8109 O   0  0  0  0  0  0  0  0  0  0  0  0
    5.2060    1.7650   -2.6811 N   0  0  0  0  0  0  0  0  0  0  0  0
    6.2976    2.5385   -3.2363 C   0  0  0  0  0  0  0  0  0  0  0  0
    7.5877    1.8348   -3.3362 C   0  0  0  0  0  0  0  0  0  0  0  0
    7.7218    0.6263   -4.1537 C   0  0  0  0  0  0  0  0  0  0  0  0
    7.4670    0.7571   -5.6299 C   0  0  0  0  0  0  0  0  0  0  0  0
    7.7452   -0.6306   -6.2061 C   0  0  0  0  0  0  0  0  0  0  0  0
    7.5881   -0.6770   -7.6762 C   0  0  0  0  0  0  0  0  0  0  0  0
    7.1484    0.3097   -8.2961 O   0  0  0  0  0  0  0  0  0  0  0  0
    7.9514   -1.8569   -8.3438 N   0  0  0  0  0  0  0  0  0  0  0  0
    7.8770   -2.1614   -9.7190 C   0  0  0  0  0  0  0  0  0  0  0  0
    6.6585   -2.3936  -10.4767 C   0  0  0  0  0  0  0  0  0  0  0  0
    5.5034   -1.5367  -10.5847 C   0  0  0  0  0  0  0  0  0  0  0  0
    4.5099   -1.2350   -9.5571 C   0  0  0  0  0  0  0  0  0  0  0  0
    3.6380   -2.2989   -9.0187 C   0  0  0  0  0  0  0  0  0  0  0  0
    4.3010   -3.3583   -8.2775 C   0  0  0  0  0  0  0  0  0  0  0  0
    5.4822   -3.4590   -7.9154 O   0  0  0  0  0  0  0  0  0  0  0  0
    3.4593   -4.4729   -7.8929 N   0  0  0  0  0  0  0  0  0  0  0  0
    4.0077   -5.6028   -7.1191 C   0  0  0  0  0  0  0  0  0  0  0  0
    2.8467   -6.5277   -6.8949 C   0  0  0  0  0  0  0  0  0  0  0  0
    3.0824   -7.7358   -6.0642 C   0  0  0  0  0  0  0  0  0  0  0  0
    1.7573   -8.5487   -5.9622 C   0  0  0  0  0  0  0  0  0  0  0  0
    0.6857   -7.6371   -5.4191 C   0  0  0  0  0  0  0  0  0  0  0  0
    0.9815   -7.0871   -4.0748 C   0  0  0  0  0  0  0  0  0  0  0  0
    1.7252   -7.6614   -3.2441 O   0  0  0  0  0  0  0  0  0  0  0  0
    0.3849   -5.8484   -3.7459 N   0  0  0  0  0  0  0  0  0  0  0  0
    0.4966   -5.1235   -2.5224 C   0  0  0  0  0  0  0  0  0  0  0  0
   -0.1052   -5.8614   -1.3322 C   0  0  0  0  0  0  0  0  0  0  0  0
   -0.0207   -5.0455   -0.0834 C   0  0  0  0  0  0  0  0  0  0  0  0
   -0.7214   -5.6919    1.1124 C   0  0  0  0  0  0  0  0  0  0  0  0
   -2.1790   -5.9652    0.7246 C   0  0  0  0  0  0  0  0  0  0  0  0
   -2.8732   -4.7457    0.2654 C   0  0  0  0  0  0  0  0  0  0  0  0
   -2.5048   -3.5773    0.4136 O   0  0  0  0  0  0  0  0  0  0  0  0
   -4.1098   -4.9543   -0.4429 N   0  0  0  0  0  0  0  0  0  0  0  0
   -4.8704   -3.8207   -0.9854 C   0  0  0  0  0  0  0  0  0  0  0  0
   -6.0956   -4.3519   -1.6954 C   0  0  0  0  0  0  0  0  0  0  0  0
   -6.8954   -3.3023   -2.3639 C   0  0  0  0  0  0  0  0  0  0  0  0
   -7.4546   -2.2084   -1.5401 C   0  0  0  0  0  0  0  0  0  0  0  0
   -8.3989   -2.6296   -0.4440 C   0  0  0  0  0  0  0  0  0  0  0  0
   -8.8664   -1.3704    0.2169 C   0  0  0  0  0  0  0  0  0  0  0  0
   -8.3579   -0.3033   -0.2406 O   0  0  0  0  0  0  0  0  0  0  0  0
   -9.8027   -1.3251    1.2703 N   0  0  0  0  0  0  0  0  0  0  0  0
  -10.1607   -0.0347    1.8008 C   0  0  0  0  0  0  0  0  0  0  0  0
   -9.0220    0.7412    2.3725 C   0  0  0  0  0  0  0  0  0  0  0  0
   -8.3556    0.0217    3.5258 C   0  0  0  0  0  0  0  0  0  0  0  0
   -7.2308    0.9415    3.9950 C   0  0  0  0  0  0  0  0  0  0  0  0
   -6.4918    0.3621    5.1543 C   0  0  0  0  0  0  0  0  0  0  0  0
   -5.3865    1.2662    5.6164 C   0  0  0  0  0  0  0  0  0  0  0  0
   -5.1880    2.3343    4.9794 O   0  0  0  0  0  0  0  0  0  0  0  0
   -4.6278    0.8774    6.7385 N   0  0  0  0  0  0  0  0  0  0  0  0
   -3.5656    1.7629    7.1700 C   0  0  0  0  0  0  0  0  0  0  0  0
   -2.8991    1.1498    8.3931 C   0  0  0  0  0  0  0  0  0  0  0  0
   -1.7788    2.0457    8.9043 C   0  0  0  0  0  0  0  0  0  0  0  0
   -1.1805    1.3590   10.1157 C   0  0  0  0  0  0  0  0  0  0  0  0
   -0.0520    2.1832   10.7074 C   0  0  0  0  0  0  0  0  0  0  0  0
    0.5496    1.5215   11.8896 C   0  0  0  0  0  0  0  0  0  0  0  0
    0.1726    0.4326   12.3421 O   0  0  0  0  0  0  0  0  0  0  0  0
    1.6050    2.1929   12.5072 O   0  0  0  0  0  0  0  0  0  0  0  0
    2.6767   -1.5050    6.9695 H   0  0  0  0  0  0  0  0  0  0  0  0
    1.1393   -0.7687    7.0268 H   0  0  0  0  0  0  0  0  0  0  0  0
    2.0921    1.0780    6.4378 H   0  0  0  0  0  0  0  0  0  0  0  0
    3.6331    0.1724    5.9115 H   0  0  0  0  0  0  0  0  0  0  0  0
    2.6550   -0.5877    3.9167 H   0  0  0  0  0  0  0  0  0  0  0  0
    1.0540    0.0871    4.2491 H   0  0  0  0  0  0  0  0  0  0  0  0
    2.1991    1.3918    2.6073 H   0  0  0  0  0  0  0  0  0  0  0  0
    3.7107    1.5046    3.6128 H   0  0  0  0  0  0  0  0  0  0  0  0
    0.9843    2.8163    4.2349 H   0  0  0  0  0  0  0  0  0  0  0  0
    2.4614    2.8787    5.2641 H   0  0  0  0  0  0  0  0  0  0  0  0
    2.3863    3.6720    2.3232 H   0  0  0  0  0  0  0  0  0  0  0  0
    3.7509    3.8395    3.4761 H   0  0  0  0  0  0  0  0  0  0  0  0
    2.8973    6.4515    2.2875 H   0  0  0  0  0  0  0  0  0  0  0  0
    2.3619    7.9247    4.7367 H   0  0  0  0  0  0  0  0  0  0  0  0
    2.0836    8.5079    3.0760 H   0  0  0  0  0  0  0  0  0  0  0  0
    0.0803    7.0380    4.8818 H   0  0  0  0  0  0  0  0  0  0  0  0
    0.1296    8.6994    4.3447 H   0  0  0  0  0  0  0  0  0  0  0  0
   -1.5411    7.3827    3.0356 H   0  0  0  0  0  0  0  0  0  0  0  0
   -0.1447    6.4132    2.3508 H   0  0  0  0  0  0  0  0  0  0  0  0
    0.6880    8.7264    1.4178 H   0  0  0  0  0  0  0  0  0  0  0  0
   -0.8264    9.3798    2.1206 H   0  0  0  0  0  0  0  0  0  0  0  0
   -1.1632    8.8734   -0.1872 H   0  0  0  0  0  0  0  0  0  0  0  0
   -2.1820    7.7722    0.7728 H   0  0  0  0  0  0  0  0  0  0  0  0
   -2.2244    6.2462   -1.2981 H   0  0  0  0  0  0  0  0  0  0  0  0
    0.2633    5.0670   -2.2115 H   0  0  0  0  0  0  0  0  0  0  0  0
   -1.3150    4.2899   -2.2071 H   0  0  0  0  0  0  0  0  0  0  0  0
   -1.1429    3.4339    0.0304 H   0  0  0  0  0  0  0  0  0  0  0  0
    0.3517    4.3133    0.3688 H   0  0  0  0  0  0  0  0  0  0  0  0
    0.7616    2.0546    0.0179 H   0  0  0  0  0  0  0  0  0  0  0  0
   -0.0326    2.0533   -1.5804 H   0  0  0  0  0  0  0  0  0  0  0  0
    1.6862    3.6290   -2.4419 H   0  0  0  0  0  0  0  0  0  0  0  0
    2.4917    3.6899   -0.8632 H   0  0  0  0  0  0  0  0  0  0  0  0
    2.2624    1.1663   -2.6064 H   0  0  0  0  0  0  0  0  0  0  0  0
    3.1057    1.2828   -1.0433 H   0  0  0  0  0  0  0  0  0  0  0  0
    5.2592    0.7649   -2.4208 H   0  0  0  0  0  0  0  0  0  0  0  0
    6.4431    3.3871   -2.5005 H   0  0  0  0  0  0  0  0  0  0  0  0
    5.9795    3.0563   -4.1685 H   0  0  0  0  0  0  0  0  0  0  0  0
    8.3881    2.5824   -3.6033 H   0  0  0  0  0  0  0  0  0  0  0  0
    7.8595    1.5281   -2.2691 H   0  0  0  0  0  0  0  0  0  0  0  0
    7.1415   -0.2277   -3.7361 H   0  0  0  0  0  0  0  0  0  0  0  0
    8.7927    0.2803   -4.0698 H   0  0  0  0  0  0  0  0  0  0  0  0
    6.4409    1.0258   -5.9003 H   0  0  0  0  0  0  0  0  0  0  0  0
    8.1578    1.4985   -6.0738 H   0  0  0  0  0  0  0  0  0  0  0  0
    8.8279   -0.8281   -6.0112 H   0  0  0  0  0  0  0  0  0  0  0  0
    7.1280   -1.3995   -5.7135 H   0  0  0  0  0  0  0  0  0  0  0  0
    8.3373   -2.6351   -7.7053 H   0  0  0  0  0  0  0  0  0  0  0  0
    8.4409   -1.3264  -10.3147 H   0  0  0  0  0  0  0  0  0  0  0  0
    8.5583   -3.0711   -9.9415 H   0  0  0  0  0  0  0  0  0  0  0  0
    7.0443   -2.4947  -11.5976 H   0  0  0  0  0  0  0  0  0  0  0  0
    6.3938   -3.5032  -10.3449 H   0  0  0  0  0  0  0  0  0  0  0  0
    4.9450   -1.7359  -11.6035 H   0  0  0  0  0  0  0  0  0  0  0  0
    5.9291   -0.4871  -10.8855 H   0  0  0  0  0  0  0  0  0  0  0  0
    4.8777   -0.5491   -8.7492 H   0  0  0  0  0  0  0  0  0  0  0  0
    3.7610   -0.5051  -10.0873 H   0  0  0  0  0  0  0  0  0  0  0  0
    2.8876   -1.8466   -8.2722 H   0  0  0  0  0  0  0  0  0  0  0  0
    2.9286   -2.7045   -9.8014 H   0  0  0  0  0  0  0  0  0  0  0  0
    2.4361   -4.4614   -8.1734 H   0  0  0  0  0  0  0  0  0  0  0  0
    4.8181   -6.0314   -7.7466 H   0  0  0  0  0  0  0  0  0  0  0  0
    4.4281   -5.2641   -6.1759 H   0  0  0  0  0  0  0  0  0  0  0  0
    2.3399   -6.7610   -7.8557 H   0  0  0  0  0  0  0  0  0  0  0  0
    2.0907   -5.8978   -6.3237 H   0  0  0  0  0  0  0  0  0  0  0  0
    3.7688   -8.4235   -6.5784 H   0  0  0  0  0  0  0  0  0  0  0  0
    3.4736   -7.5256   -5.0633 H   0  0  0  0  0  0  0  0  0  0  0  0
    1.9850   -9.3875   -5.2794 H   0  0  0  0  0  0  0  0  0  0  0  0
    1.5469   -8.9335   -6.9512 H   0  0  0  0  0  0  0  0  0  0  0  0
   -0.2114   -8.3254   -5.2534 H   0  0  0  0  0  0  0  0  0  0  0  0
    0.4166   -6.8889   -6.1620 H   0  0  0  0  0  0  0  0  0  0  0  0
   -0.2211   -5.3927   -4.5044 H   0  0  0  0  0  0  0  0  0  0  0  0
    0.0741   -4.1124   -2.6180 H   0  0  0  0  0  0  0  0  0  0  0  0
    1.5840   -4.9950   -2.2889 H   0  0  0  0  0  0  0  0  0  0  0  0
   -1.1854   -6.0042   -1.6204 H   0  0  0  0  0  0  0  0  0  0  0  0
    0.3190   -6.8610   -1.2114 H   0  0  0  0  0  0  0  0  0  0  0  0
   -0.3657   -4.0245   -0.1715 H   0  0  0  0  0  0  0  0  0  0  0  0
    1.0533   -4.9878    0.2224 H   0  0  0  0  0  0  0  0  0  0  0  0
   -0.7229   -4.9540    1.9235 H   0  0  0  0  0  0  0  0  0  0  0  0
   -0.2569   -6.6155    1.4471 H   0  0  0  0  0  0  0  0  0  0  0  0
   -2.6586   -6.3953    1.6498 H   0  0  0  0  0  0  0  0  0  0  0  0
   -2.1780   -6.7633   -0.0296 H   0  0  0  0  0  0  0  0  0  0  0  0
   -4.4843   -5.9360   -0.5814 H   0  0  0  0  0  0  0  0  0  0  0  0
   -4.2353   -3.2525   -1.6666 H   0  0  0  0  0  0  0  0  0  0  0  0
   -5.1526   -3.1487   -0.1392 H   0  0  0  0  0  0  0  0  0  0  0  0
   -5.7470   -5.0693   -2.4849 H   0  0  0  0  0  0  0  0  0  0  0  0
   -6.7243   -4.9498   -0.9867 H   0  0  0  0  0  0  0  0  0  0  0  0
   -7.7152   -3.8137   -2.9480 H   0  0  0  0  0  0  0  0  0  0  0  0
   -6.2082   -2.8050   -3.1194 H   0  0  0  0  0  0  0  0  0  0  0  0
   -6.6464   -1.5784   -1.1310 H   0  0  0  0  0  0  0  0  0  0  0  0
   -8.0606   -1.5552   -2.2288 H   0  0  0  0  0  0  0  0  0  0  0  0
   -9.2159   -3.2611   -0.8067 H   0  0  0  0  0  0  0  0  0  0  0  0
   -7.8140   -3.2294    0.3005 H   0  0  0  0  0  0  0  0  0  0  0  0
  -10.1866   -2.2361    1.6116 H   0  0  0  0  0  0  0  0  0  0  0  0
  -10.6809    0.5946    1.0214 H   0  0  0  0  0  0  0  0  0  0  0  0
  -10.9171   -0.1547    2.6073 H   0  0  0  0  0  0  0  0  0  0  0  0
   -8.2379    1.0268    1.6580 H   0  0  0  0  0  0  0  0  0  0  0  0
   -9.4435    1.6918    2.7927 H   0  0  0  0  0  0  0  0  0  0  0  0
   -7.8388   -0.9000    3.1783 H   0  0  0  0  0  0  0  0  0  0  0  0
   -9.0457   -0.1749    4.3412 H   0  0  0  0  0  0  0  0  0  0  0  0
   -6.5057    1.1543    3.1893 H   0  0  0  0  0  0  0  0  0  0  0  0
   -7.6745    1.9112    4.3106 H   0  0  0  0  0  0  0  0  0  0  0  0
   -7.1889    0.1925    5.9820 H   0  0  0  0  0  0  0  0  0  0  0  0
   -6.0467   -0.6231    4.8656 H   0  0  0  0  0  0  0  0  0  0  0  0
   -4.8536   -0.0144    7.2090 H   0  0  0  0  0  0  0  0  0  0  0  0
   -4.0586    2.6949    7.4929 H   0  0  0  0  0  0  0  0  0  0  0  0
   -2.8349    1.9776    6.3866 H   0  0  0  0  0  0  0  0  0  0  0  0
   -2.4965    0.1573    8.1107 H   0  0  0  0  0  0  0  0  0  0  0  0
   -3.6293    0.9885    9.2054 H   0  0  0  0  0  0  0  0  0  0  0  0
   -1.0210    2.2471    8.1462 H   0  0  0  0  0  0  0  0  0  0  0  0
   -2.1984    3.0007    9.2708 H   0  0  0  0  0  0  0  0  0  0  0  0
   -1.9642    1.1472   10.8632 H   0  0  0  0  0  0  0  0  0  0  0  0
   -0.7558    0.3914    9.7863 H   0  0  0  0  0  0  0  0  0  0  0  0
    0.7317    2.3998    9.9643 H   0  0  0  0  0  0  0  0  0  0  0  0
   -0.5535    3.1245   11.0828 H   0  0  0  0  0  0  0  0  0  0  0  0
    1.9068    1.9940   13.4414 H   0  0  0  0  0  0  0  0  0  0  0  0
  1  2  1  0
  2  3  1  0
  3  4  1  0
  4  5  1  0
  5  6  1  0
  6  7  1  0
  7  8  2  0
  7  9  1  0
  9 10  1  0
 10 11  1  0
 11 12  1  0
 12 13  1  0
 13 14  1  0
 14 15  1  0
 15 16  2  0
 15 17  1  0
 17 18  1  0
 18 19  1  0
 19 20  1  0
 20 21  1  0
 21 22  1  0
 22 23  1  0
 23 24  2  0
 23 25  1  0
 25 26  1  0
 26 27  1  0
 27 28  1  0
 28 29  1  0
 29 30  1  0
 30 31  1  0
 31 32  2  0
 31 33  1  0
 33 34  1  0
 34 35  1  0
 35 36  1  0
 36 37  1  0
 37 38  1  0
 38 39  1  0
 39 40  2  0
 39 41  1  0
 41 42  1  0
 42 43  1  0
 43 44  1  0
 44 45  1  0
 45 46  1  0
 46 47  1  0
 47 48  2  0
 47 49  1  0
 49 50  1  0
 50 51  1  0
 51 52  1  0
 52 53  1  0
 53 54  1  0
 54 55  1  0
 55 56  2  0
 55 57  1  0
 57 58  1  0
 58 59  1  0
 59 60  1  0
 60 61  1  0
 61 62  1  0
 62 63  1  0
 63 64  2  0
 63 65  1  0
 65 66  1  0
 66 67  1  0
 67 68  1  0
 68 69  1  0
 69 70  1  0
 70 71  1  0
 71 72  2  0
 71 73  1  0
 73 74  1  0
 74 75  1  0
 75 76  1  0
 76 77  1  0
 77 78  1  0
 78 79  1  0
 79 80  2  0
 79 81  1  0
  1 82  1  0
  1 83  1  0
  2 84  1  0
  2 85  1  0
  3 86  1  0
  3 87  1  0
  4 88  1  0
  4 89  1  0
  5 90  1  0
  5 91  1  0
  6 92  1  0
  6 93  1  0
  9 94  1  0
 10 95  1  0
 10 96  1  0
 11 97  1  0
 11 98  1  0
 12 99  1  0
 12100  1  0
 13101  1  0
 13102  1  0
 14103  1  0
 14104  1  0
 17105  1  0
 18106  1  0
 18107  1  0
 19108  1  0
 19109  1  0
 20110  1  0
 20111  1  0
 21112  1  0
 21113  1  0
 22114  1  0
 22115  1  0
 25116  1  0
 26117  1  0
 26118  1  0
 27119  1  0
 27120  1  0
 28121  1  0
 28122  1  0
 29123  1  0
 29124  1  0
 30125  1  0
 30126  1  0
 33127  1  0
 34128  1  0
 34129  1  0
 35130  1  0
 35131  1  0
 36132  1  0
 36133  1  0
 37134  1  0
 37135  1  0
 38136  1  0
 38137  1  0
 41138  1  0
 42139  1  0
 42140  1  0
 43141  1  0
 43142  1  0
 44143  1  0
 44144  1  0
 45145  1  0
 45146  1  0
 46147  1  0
 46148  1  0
 49149  1  0
 50150  1  0
 50151  1  0
 51152  1  0
 51153  1  0
 52154  1  0
 52155  1  0
 53156  1  0
 53157  1  0
 54158  1  0
 54159  1  0
 57160  1  0
 58161  1  0
 58162  1  0
 59163  1  0
 59164  1  0
 60165  1  0
 60166  1  0
 61167  1  0
 61168  1  0
 62169  1  0
 62170  1  0
 65171  1  0
 66172  1  0
 66173  1  0
 67174  1  0
 67175  1  0
 68176  1  0
 68177  1  0
 69178  1  0
 69179  1  0
 70180  1  0
 70181  1  0
 73182  1  0
 74183  1  0
 74184  1  0
 75185  1  0
 75186  1  0
 76187  1  0
 76188  1  0
 77189  1  0
 77190  1  0
 78191  1  0
 78192  1  0
 81193  1  0
M  END
$$$$
