
     RDKit          3D

 93 92  0  0  0  0  0  0  0  0999 V2000
   -5.3267   -0.9723    4.8915 O   0  0  0  0  0  0  0  0  0  0  0  0
   -6.0350    0.0227    4.2044 C   0  0  0  0  0  0  0  0  0  0  0  0
   -5.2659    0.2577    2.9074 C   0  0  0  0  0  0  0  0  0  0  0  0
   -5.9395    1.2936    2.1131 C   0  0  0  0  0  0  0  0  0  0  0  0
   -6.9757    1.8270    2.5586 O   0  0  0  0  0  0  0  0  0  0  0  0
   -5.3958    1.6557    0.8665 O   0  0  0  0  0  0  0  0  0  0  0  0
   -6.0097    2.6374    0.0762 C   0  0  0  0  0  0  0  0  0  0  0  0
   -6.1016    3.9806    0.7151 C   0  0  0  0  0  0  0  0  0  0  0  0
   -4.7790    4.5557    1.0450 C   0  0  0  0  0  0  0  0  0  0  0  0
   -4.0655    4.9248    0.0713 O   0  0  0  0  0  0  0  0  0  0  0  0
   -4.2984    4.7073    2.3229 O   0  0  0  0  0  0  0  0  0  0  0  0
   -3.0589    5.2546    2.6738 C   0  0  0  0  0  0  0  0  0  0  0  0
   -1.9022    4.4943    2.0996 C   0  0  0  0  0  0  0  0  0  0  0  0
   -1.8955    3.1012    2.5660 C   0  0  0  0  0  0  0  0  0  0  0  0
   -2.5201    2.2282    1.9239 O   0  0  0  0  0  0  0  0  0  0  0  0
   -1.1705    2.8010    3.7390 O   0  0  0  0  0  0  0  0  0  0  0  0
   -1.1752    1.4655    4.1573 C   0  0  0  0  0  0  0  0  0  0  0  0
   -0.3760    1.3169    5.4104 C   0  0  0  0  0  0  0  0  0  0  0  0
    1.0234    1.7447    5.2155 C   0  0  0  0  0  0  0  0  0  0  0  0
    1.5258    2.5729    6.0130 O   0  0  0  0  0  0  0  0  0  0  0  0
    1.8129    1.2790    4.1939 O   0  0  0  0  0  0  0  0  0  0  0  0
    3.1591    1.6842    3.9975 C   0  0  0  0  0  0  0  0  0  0  0  0
    3.6745    0.9993    2.7668 C   0  0  0  0  0  0  0  0  0  0  0  0
    3.6550   -0.4607    2.8501 C   0  0  0  0  0  0  0  0  0  0  0  0
    4.6791   -1.1807    3.0517 O   0  0  0  0  0  0  0  0  0  0  0  0
    2.4532   -1.1199    2.7024 O   0  0  0  0  0  0  0  0  0  0  0  0
    2.3432   -2.5120    2.7544 C   0  0  0  0  0  0  0  0  0  0  0  0
    0.8846   -2.9205    2.6022 C   0  0  0  0  0  0  0  0  0  0  0  0
    0.3892   -2.3700    1.3099 C   0  0  0  0  0  0  0  0  0  0  0  0
    1.2271   -1.6527    0.6691 O   0  0  0  0  0  0  0  0  0  0  0  0
   -0.8934   -2.6139    0.8293 O   0  0  0  0  0  0  0  0  0  0  0  0
   -1.2451   -2.0342   -0.3839 C   0  0  0  0  0  0  0  0  0  0  0  0
   -0.4144   -2.3852   -1.5653 C   0  0  0  0  0  0  0  0  0  0  0  0
   -1.0005   -1.6204   -2.7270 C   0  0  0  0  0  0  0  0  0  0  0  0
   -2.0627   -0.9518   -2.5886 O   0  0  0  0  0  0  0  0  0  0  0  0
   -0.3451   -1.6656   -3.9505 O   0  0  0  0  0  0  0  0  0  0  0  0
   -0.9099   -0.9403   -5.0266 C   0  0  0  0  0  0  0  0  0  0  0  0
   -0.0568   -1.0449   -6.2721 C   0  0  0  0  0  0  0  0  0  0  0  0
    1.3128   -0.5013   -6.0320 C   0  0  0  0  0  0  0  0  0  0  0  0
    2.1474   -0.3345   -6.9614 O   0  0  0  0  0  0  0  0  0  0  0  0
    1.6492   -0.1801   -4.7478 O   0  0  0  0  0  0  0  0  0  0  0  0
    2.8977    0.3500   -4.3769 C   0  0  0  0  0  0  0  0  0  0  0  0
    4.0740   -0.5146   -4.7216 C   0  0  0  0  0  0  0  0  0  0  0  0
    3.8810   -1.8309   -3.9929 C   0  0  0  0  0  0  0  0  0  0  0  0
    2.8482   -1.9293   -3.3284 O   0  0  0  0  0  0  0  0  0  0  0  0
    4.8685   -2.7449   -4.1595 O   0  0  0  0  0  0  0  0  0  0  0  0
    4.8882   -4.0119   -3.5997 C   0  0  0  0  0  0  0  0  0  0  0  0
    3.8938   -5.0121   -4.0578 C   0  0  0  0  0  0  0  0  0  0  0  0
    2.4827   -4.6710   -3.8638 C   0  0  0  0  0  0  0  0  0  0  0  0
    1.8121   -4.2717   -4.8592 O   0  0  0  0  0  0  0  0  0  0  0  0
    1.8030   -4.7495   -2.6583 O   0  0  0  0  0  0  0  0  0  0  0  0
   -4.9634   -0.5678    5.7420 H   0  0  0  0  0  0  0  0  0  0  0  0
   -6.0158    0.9765    4.7891 H   0  0  0  0  0  0  0  0  0  0  0  0
   -7.0617   -0.3348    4.0203 H   0  0  0  0  0  0  0  0  0  0  0  0
   -4.2395    0.5190    3.1876 H   0  0  0  0  0  0  0  0  0  0  0  0
   -5.2838   -0.6729    2.2876 H   0  0  0  0  0  0  0  0  0  0  0  0
   -5.4503    2.6873   -0.8804 H   0  0  0  0  0  0  0  0  0  0  0  0
   -7.0207    2.2653   -0.2012 H   0  0  0  0  0  0  0  0  0  0  0  0
   -6.7281    3.9686    1.6289 H   0  0  0  0  0  0  0  0  0  0  0  0
   -6.6191    4.6570   -0.0013 H   0  0  0  0  0  0  0  0  0  0  0  0
   -3.0342    6.3266    2.3781 H   0  0  0  0  0  0  0  0  0  0  0  0
   -2.9820    5.1606    3.7999 H   0  0  0  0  0  0  0  0  0  0  0  0
   -1.9781    4.5187    0.9938 H   0  0  0  0  0  0  0  0  0  0  0  0
   -0.9424    4.9779    2.4282 H   0  0  0  0  0  0  0  0  0  0  0  0
   -0.7869    0.7961    3.3601 H   0  0  0  0  0  0  0  0  0  0  0  0
   -2.2386    1.1671    4.3665 H   0  0  0  0  0  0  0  0  0  0  0  0
   -0.3600    0.2365    5.6752 H   0  0  0  0  0  0  0  0  0  0  0  0
   -0.8627    1.8336    6.2572 H   0  0  0  0  0  0  0  0  0  0  0  0
    3.1347    2.7748    3.8589 H   0  0  0  0  0  0  0  0  0  0  0  0
    3.7556    1.4263    4.8818 H   0  0  0  0  0  0  0  0  0  0  0  0
    4.6861    1.4056    2.5588 H   0  0  0  0  0  0  0  0  0  0  0  0
    3.0577    1.3415    1.8894 H   0  0  0  0  0  0  0  0  0  0  0  0
    2.9181   -2.9918    1.9320 H   0  0  0  0  0  0  0  0  0  0  0  0
    2.7346   -2.8936    3.7160 H   0  0  0  0  0  0  0  0  0  0  0  0
    0.3061   -2.5973    3.4769 H   0  0  0  0  0  0  0  0  0  0  0  0
    0.8601   -4.0128    2.5244 H   0  0  0  0  0  0  0  0  0  0  0  0
   -2.2866   -2.4035   -0.6128 H   0  0  0  0  0  0  0  0  0  0  0  0
   -1.3686   -0.9270   -0.3303 H   0  0  0  0  0  0  0  0  0  0  0  0
   -0.6630   -3.4584   -1.8194 H   0  0  0  0  0  0  0  0  0  0  0  0
    0.6549   -2.2151   -1.4976 H   0  0  0  0  0  0  0  0  0  0  0  0
   -1.1593    0.0987   -4.7982 H   0  0  0  0  0  0  0  0  0  0  0  0
   -1.8707   -1.4496   -5.2668 H   0  0  0  0  0  0  0  0  0  0  0  0
    0.0211   -2.0667   -6.6359 H   0  0  0  0  0  0  0  0  0  0  0  0
   -0.5146   -0.4190   -7.0644 H   0  0  0  0  0  0  0  0  0  0  0  0
    2.9488    0.5819   -3.2900 H   0  0  0  0  0  0  0  0  0  0  0  0
    3.0845    1.3453   -4.8720 H   0  0  0  0  0  0  0  0  0  0  0  0
    4.1876   -0.6815   -5.8084 H   0  0  0  0  0  0  0  0  0  0  0  0
    4.9968   -0.0782   -4.2818 H   0  0  0  0  0  0  0  0  0  0  0  0
    5.9401   -4.3939   -3.7200 H   0  0  0  0  0  0  0  0  0  0  0  0
    4.7776   -3.9718   -2.4673 H   0  0  0  0  0  0  0  0  0  0  0  0
    4.0929   -5.9485   -3.4547 H   0  0  0  0  0  0  0  0  0  0  0  0
    4.0850   -5.3181   -5.1386 H   0  0  0  0  0  0  0  0  0  0  0  0
    0.8523   -5.1192   -2.5993 H   0  0  0  0  0  0  0  0  0  0  0  0
  1  2  1  0
  2  3  1  0
  3  4  1  0
  4  5  2  0
  4  6  1  0
  6  7  1  0
  7  8  1  0
  8  9  1  0
  9 10  2  0
  9 11  1  0
 11 12  1  0
 12 13  1  0
 13 14  1  0
 14 15  2  0
 14 16  1  0
 16 17  1  0
 17 18  1  0
 18 19  1  0
 19 20  2  0
 19 21  1  0
 21 22  1  0
 22 23  1  0
 23 24  1  0
 24 25  2  0
 24 26  1  0
 26 27  1  0
 27 28  1  0
 28 29  1  0
 29 30  2  0
 29 31  1  0
 31 32  1  0
 32 33  1  0
 33 34  1  0
 34 35  2  0
 34 36  1  0
 36 37  1  0
 37 38  1  0
 38 39  1  0
 39 40  2  0
 39 41  1  0
 41 42  1  0
 42 43  1  0
 43 44  1  0
 44 45  2  0
 44 46  1  0
 46 47  1  0
 47 48  1  0
 48 49  1  0
 49 50  2  0
 49 51  1  0
  1 52  1  0
  2 53  1  0
  2 54  1  0
  3 55  1  0
  3 56  1  0
  7 57  1  0
  7 58  1  0
  8 59  1  0
  8 60  1  0
 12 61  1  0
 12 62  1  0
 13 63  1  0
 13 64  1  0
 17 65  1  0
 17 66  1  0
 18 67  1  0
 18 68  1  0
 22 69  1  0
 22 70  1  0
 23 71  1  0
 23 72  1  0
 27 73  1  0
 27 74  1  0
 28 75  1  0
 28 76  1  0
 32 77  1  0
 32 78  1  0
 33 79  1  0
 33 80  1  0
 37 81  1  0
 37 82  1  0
 38 83  1  0
 38 84  1  0
 42 85  1  0
 42 86  1  0
 43 87  1  0
 43 88  1  0
 47 89  1  0
 47 90  1  0
 48 91  1  0
 48 92  1  0
 51 93  1  0
M  END
$$$$
