
     RDKit          3D

193192  0  0  0  0  0  0  0  0999 V2000
    1.9037    1.3234   -1.4792 N   0  0  0  0  0  0  0  0  0  0  0  0
    0.9404    0.6210   -0.6996 C   0  0  0  0  0  0  0  0  0  0  0  0
   -0.2961    0.2001   -1.4261 C   0  0  0  0  0  0  0  0  0  0  0  0
   -1.0869    1.3720   -2.0046 C   0  0  0  0  0  0  0  0  0  0  0  0
   -2.2679    0.7997   -2.7066 C   0  0  0  0  0  0  0  0  0  0  0  0
   -3.1359    1.8736   -3.2821 C   0  0  0  0  0  0  0  0  0  0  0  0
   -3.6742    2.7284   -2.2429 C   0  0  0  0  0  0  0  0  0  0  0  0
   -3.3965    2.6449   -1.0009 O   0  0  0  0  0  0  0  0  0  0  0  0
   -4.6149    3.7829   -2.5523 N   0  0  0  0  0  0  0  0  0  0  0  0
   -5.1340    4.5923   -1.5224 C   0  0  0  0  0  0  0  0  0  0  0  0
   -4.1726    5.4548   -0.7419 C   0  0  0  0  0  0  0  0  0  0  0  0
   -3.4916    6.4716   -1.5880 C   0  0  0  0  0  0  0  0  0  0  0  0
   -2.5962    6.1242   -2.6579 C   0  0  0  0  0  0  0  0  0  0  0  0
   -1.2752    5.4753   -2.3821 C   0  0  0  0  0  0  0  0  0  0  0  0
   -0.4007    6.3463   -1.5785 C   0  0  0  0  0  0  0  0  0  0  0  0
   -0.8115    7.4289   -1.0164 O   0  0  0  0  0  0  0  0  0  0  0  0
    1.0059    6.1058   -1.3307 N   0  0  0  0  0  0  0  0  0  0  0  0
    1.6064    7.1393   -0.5227 C   0  0  0  0  0  0  0  0  0  0  0  0
    3.0346    7.0709   -0.2240 C   0  0  0  0  0  0  0  0  0  0  0  0
    3.9900    7.0636   -1.4044 C   0  0  0  0  0  0  0  0  0  0  0  0
    3.6999    8.1971   -2.3196 C   0  0  0  0  0  0  0  0  0  0  0  0
    4.6337    8.4388   -3.4519 C   0  0  0  0  0  0  0  0  0  0  0  0
    4.9420    7.3048   -4.3337 C   0  0  0  0  0  0  0  0  0  0  0  0
    4.7389    6.1268   -4.0010 O   0  0  0  0  0  0  0  0  0  0  0  0
    5.5074    7.5291   -5.6375 N   0  0  0  0  0  0  0  0  0  0  0  0
    5.8660    6.4401   -6.4918 C   0  0  0  0  0  0  0  0  0  0  0  0
    4.7612    5.4589   -6.8274 C   0  0  0  0  0  0  0  0  0  0  0  0
    5.4256    4.3708   -7.6685 C   0  0  0  0  0  0  0  0  0  0  0  0
    4.4421    3.2067   -7.9618 C   0  0  0  0  0  0  0  0  0  0  0  0
    3.9262    2.6959   -6.6656 C   0  0  0  0  0  0  0  0  0  0  0  0
    3.1192    1.4525   -6.6754 C   0  0  0  0  0  0  0  0  0  0  0  0
    3.0276    0.6618   -7.6404 O   0  0  0  0  0  0  0  0  0  0  0  0
    2.4311    1.1919   -5.4659 N   0  0  0  0  0  0  0  0  0  0  0  0
    1.6246    0.0717   -5.1126 C   0  0  0  0  0  0  0  0  0  0  0  0
    2.4571   -1.2061   -5.0452 C   0  0  0  0  0  0  0  0  0  0  0  0
    1.6459   -2.3788   -4.4880 C   0  0  0  0  0  0  0  0  0  0  0  0
    2.5496   -3.5513   -4.3566 C   0  0  0  0  0  0  0  0  0  0  0  0
    1.9876   -4.7644   -3.6997 C   0  0  0  0  0  0  0  0  0  0  0  0
    1.5412   -4.5270   -2.3243 C   0  0  0  0  0  0  0  0  0  0  0  0
    1.2139   -3.3671   -1.8750 O   0  0  0  0  0  0  0  0  0  0  0  0
    1.4289   -5.5510   -1.3231 N   0  0  0  0  0  0  0  0  0  0  0  0
    0.9453   -5.0562   -0.0233 C   0  0  0  0  0  0  0  0  0  0  0  0
    0.9515   -6.0848    1.0326 C   0  0  0  0  0  0  0  0  0  0  0  0
    0.2051   -7.3317    0.8450 C   0  0  0  0  0  0  0  0  0  0  0  0
   -1.2360   -7.3746    0.6586 C   0  0  0  0  0  0  0  0  0  0  0  0
   -2.1713   -6.8276    1.6937 C   0  0  0  0  0  0  0  0  0  0  0  0
   -1.9812   -7.4304    3.0038 C   0  0  0  0  0  0  0  0  0  0  0  0
   -0.8498   -7.8063    3.3530 O   0  0  0  0  0  0  0  0  0  0  0  0
   -3.0340   -7.6463    3.9630 N   0  0  0  0  0  0  0  0  0  0  0  0
   -2.8235   -8.2109    5.2598 C   0  0  0  0  0  0  0  0  0  0  0  0
   -2.1750   -7.4077    6.3054 C   0  0  0  0  0  0  0  0  0  0  0  0
   -0.8914   -6.7322    6.0161 C   0  0  0  0  0  0  0  0  0  0  0  0
   -0.3890   -6.0476    7.3016 C   0  0  0  0  0  0  0  0  0  0  0  0
    0.7757   -5.1542    7.0160 C   0  0  0  0  0  0  0  0  0  0  0  0
    1.8761   -5.7701    6.3043 C   0  0  0  0  0  0  0  0  0  0  0  0
    2.0038   -6.9466    5.9132 O   0  0  0  0  0  0  0  0  0  0  0  0
    2.9948   -4.9010    5.9777 N   0  0  0  0  0  0  0  0  0  0  0  0
    4.0415   -5.4922    5.2139 C   0  0  0  0  0  0  0  0  0  0  0  0
    5.1434   -4.6141    4.8269 C   0  0  0  0  0  0  0  0  0  0  0  0
    5.0414   -3.4721    3.9052 C   0  0  0  0  0  0  0  0  0  0  0  0
    4.2100   -2.2931    4.0752 C   0  0  0  0  0  0  0  0  0  0  0  0
    2.7505   -2.3236    3.9918 C   0  0  0  0  0  0  0  0  0  0  0  0
    2.1814   -0.9314    4.3388 C   0  0  0  0  0  0  0  0  0  0  0  0
    2.9294    0.0771    4.2300 O   0  0  0  0  0  0  0  0  0  0  0  0
    0.8449   -0.8348    4.7810 N   0  0  0  0  0  0  0  0  0  0  0  0
    0.2024    0.4149    5.1767 C   0  0  0  0  0  0  0  0  0  0  0  0
   -1.1826    0.1409    5.6842 C   0  0  0  0  0  0  0  0  0  0  0  0
   -2.1351   -0.4067    4.6589 C   0  0  0  0  0  0  0  0  0  0  0  0
   -2.4433    0.6256    3.6224 C   0  0  0  0  0  0  0  0  0  0  0  0
   -3.3509    0.1497    2.5572 C   0  0  0  0  0  0  0  0  0  0  0  0
   -4.6553   -0.3623    2.9871 C   0  0  0  0  0  0  0  0  0  0  0  0
   -5.0180   -0.6451    4.1476 O   0  0  0  0  0  0  0  0  0  0  0  0
   -5.6394   -0.5665    1.9626 N   0  0  0  0  0  0  0  0  0  0  0  0
   -6.9419   -1.0983    2.1858 C   0  0  0  0  0  0  0  0  0  0  0  0
   -7.8295   -0.4137    3.1547 C   0  0  0  0  0  0  0  0  0  0  0  0
   -8.1478    1.0092    2.8915 C   0  0  0  0  0  0  0  0  0  0  0  0
   -8.7819    1.2700    1.5567 C   0  0  0  0  0  0  0  0  0  0  0  0
   -9.1826    2.7035    1.3664 C   0  0  0  0  0  0  0  0  0  0  0  0
   -8.0342    3.6221    1.5139 C   0  0  0  0  0  0  0  0  0  0  0  0
   -6.8409    3.2930    1.6134 O   0  0  0  0  0  0  0  0  0  0  0  0
   -8.3747    4.9935    1.5419 O   0  0  0  0  0  0  0  0  0  0  0  0
    2.3992    2.0360   -0.8866 H   0  0  0  0  0  0  0  0  0  0  0  0
    1.4720    1.7293   -2.3223 H   0  0  0  0  0  0  0  0  0  0  0  0
    1.4592   -0.2571   -0.2377 H   0  0  0  0  0  0  0  0  0  0  0  0
    0.6035    1.3393    0.1057 H   0  0  0  0  0  0  0  0  0  0  0  0
   -0.9534   -0.3148   -0.6676 H   0  0  0  0  0  0  0  0  0  0  0  0
   -0.0550   -0.4938   -2.2257 H   0  0  0  0  0  0  0  0  0  0  0  0
   -1.2574    2.0440   -1.1721 H   0  0  0  0  0  0  0  0  0  0  0  0
   -0.4865    1.9245   -2.7507 H   0  0  0  0  0  0  0  0  0  0  0  0
   -2.8691    0.1012   -2.0589 H   0  0  0  0  0  0  0  0  0  0  0  0
   -1.8528    0.1308   -3.5203 H   0  0  0  0  0  0  0  0  0  0  0  0
   -4.0267    1.3234   -3.7322 H   0  0  0  0  0  0  0  0  0  0  0  0
   -2.6306    2.4243   -4.1087 H   0  0  0  0  0  0  0  0  0  0  0  0
   -4.8960    3.9215   -3.5700 H   0  0  0  0  0  0  0  0  0  0  0  0
   -5.7247    4.0062   -0.7496 H   0  0  0  0  0  0  0  0  0  0  0  0
   -5.9554    5.2412   -1.9772 H   0  0  0  0  0  0  0  0  0  0  0  0
   -4.8101    6.0381   -0.0276 H   0  0  0  0  0  0  0  0  0  0  0  0
   -3.5177    4.8546   -0.0832 H   0  0  0  0  0  0  0  0  0  0  0  0
   -3.0458    7.2199   -0.8546 H   0  0  0  0  0  0  0  0  0  0  0  0
   -4.3509    7.0954   -2.0173 H   0  0  0  0  0  0  0  0  0  0  0  0
   -2.3679    7.0661   -3.2437 H   0  0  0  0  0  0  0  0  0  0  0  0
   -3.1240    5.4823   -3.4153 H   0  0  0  0  0  0  0  0  0  0  0  0
   -1.3518    4.5173   -1.8535 H   0  0  0  0  0  0  0  0  0  0  0  0
   -0.7362    5.2816   -3.3328 H   0  0  0  0  0  0  0  0  0  0  0  0
    1.4875    5.2701   -1.7107 H   0  0  0  0  0  0  0  0  0  0  0  0
    1.0747    7.1758    0.4898 H   0  0  0  0  0  0  0  0  0  0  0  0
    1.3088    8.1686   -0.9411 H   0  0  0  0  0  0  0  0  0  0  0  0
    3.3156    7.9090    0.4542 H   0  0  0  0  0  0  0  0  0  0  0  0
    3.2247    6.1061    0.3307 H   0  0  0  0  0  0  0  0  0  0  0  0
    5.0104    7.1801   -0.9918 H   0  0  0  0  0  0  0  0  0  0  0  0
    3.9744    6.0620   -1.8913 H   0  0  0  0  0  0  0  0  0  0  0  0
    3.6773    9.1326   -1.6762 H   0  0  0  0  0  0  0  0  0  0  0  0
    2.6454    8.1621   -2.7248 H   0  0  0  0  0  0  0  0  0  0  0  0
    5.6260    8.8225   -3.0659 H   0  0  0  0  0  0  0  0  0  0  0  0
    4.2420    9.3089   -4.0682 H   0  0  0  0  0  0  0  0  0  0  0  0
    5.6277    8.5508   -5.9034 H   0  0  0  0  0  0  0  0  0  0  0  0
    6.7131    5.8447   -6.0772 H   0  0  0  0  0  0  0  0  0  0  0  0
    6.2049    6.8437   -7.4717 H   0  0  0  0  0  0  0  0  0  0  0  0
    4.3416    5.0119   -5.9190 H   0  0  0  0  0  0  0  0  0  0  0  0
    3.9791    5.9521   -7.4232 H   0  0  0  0  0  0  0  0  0  0  0  0
    6.3354    3.9698   -7.1867 H   0  0  0  0  0  0  0  0  0  0  0  0
    5.7351    4.7610   -8.6671 H   0  0  0  0  0  0  0  0  0  0  0  0
    3.6318    3.6553   -8.5475 H   0  0  0  0  0  0  0  0  0  0  0  0
    4.9552    2.4563   -8.5801 H   0  0  0  0  0  0  0  0  0  0  0  0
    4.7843    2.6223   -5.9518 H   0  0  0  0  0  0  0  0  0  0  0  0
    3.2297    3.4997   -6.2701 H   0  0  0  0  0  0  0  0  0  0  0  0
    2.5286    1.9409   -4.7036 H   0  0  0  0  0  0  0  0  0  0  0  0
    0.8432   -0.0261   -5.9219 H   0  0  0  0  0  0  0  0  0  0  0  0
    1.0464    0.2420   -4.1904 H   0  0  0  0  0  0  0  0  0  0  0  0
    3.2972   -0.9983   -4.3721 H   0  0  0  0  0  0  0  0  0  0  0  0
    2.8352   -1.4450   -6.0553 H   0  0  0  0  0  0  0  0  0  0  0  0
    1.2102   -1.9835   -3.5608 H   0  0  0  0  0  0  0  0  0  0  0  0
    0.8660   -2.6032   -5.2537 H   0  0  0  0  0  0  0  0  0  0  0  0
    2.9291   -3.7707   -5.4045 H   0  0  0  0  0  0  0  0  0  0  0  0
    3.4972   -3.3100   -3.8065 H   0  0  0  0  0  0  0  0  0  0  0  0
    2.7993   -5.5525   -3.7230 H   0  0  0  0  0  0  0  0  0  0  0  0
    1.1447   -5.1544   -4.3235 H   0  0  0  0  0  0  0  0  0  0  0  0
    1.6667   -6.5364   -1.5093 H   0  0  0  0  0  0  0  0  0  0  0  0
   -0.0633   -4.6516   -0.2601 H   0  0  0  0  0  0  0  0  0  0  0  0
    1.6438   -4.2377    0.2437 H   0  0  0  0  0  0  0  0  0  0  0  0
    2.0386   -6.3754    1.1857 H   0  0  0  0  0  0  0  0  0  0  0  0
    0.6941   -5.6551    2.0525 H   0  0  0  0  0  0  0  0  0  0  0  0
    0.6530   -7.9266   -0.0505 H   0  0  0  0  0  0  0  0  0  0  0  0
    0.5101   -8.0253    1.6879 H   0  0  0  0  0  0  0  0  0  0  0  0
   -1.5765   -7.0437   -0.3653 H   0  0  0  0  0  0  0  0  0  0  0  0
   -1.5109   -8.4908    0.6092 H   0  0  0  0  0  0  0  0  0  0  0  0
   -3.2024   -7.1487    1.3473 H   0  0  0  0  0  0  0  0  0  0  0  0
   -2.1903   -5.7107    1.7053 H   0  0  0  0  0  0  0  0  0  0  0  0
   -3.9837   -7.3486    3.6322 H   0  0  0  0  0  0  0  0  0  0  0  0
   -3.8425   -8.5241    5.6453 H   0  0  0  0  0  0  0  0  0  0  0  0
   -2.2676   -9.1887    5.1798 H   0  0  0  0  0  0  0  0  0  0  0  0
   -1.9883   -8.0699    7.2320 H   0  0  0  0  0  0  0  0  0  0  0  0
   -2.8687   -6.6278    6.7484 H   0  0  0  0  0  0  0  0  0  0  0  0
   -0.1396   -7.5384    5.8005 H   0  0  0  0  0  0  0  0  0  0  0  0
   -0.9645   -5.9562    5.2574 H   0  0  0  0  0  0  0  0  0  0  0  0
   -1.2389   -5.4740    7.7546 H   0  0  0  0  0  0  0  0  0  0  0  0
   -0.0943   -6.8353    8.0038 H   0  0  0  0  0  0  0  0  0  0  0  0
    0.3538   -4.2663    6.4260 H   0  0  0  0  0  0  0  0  0  0  0  0
    1.1077   -4.6794    7.9936 H   0  0  0  0  0  0  0  0  0  0  0  0
    2.9864   -3.9313    6.3452 H   0  0  0  0  0  0  0  0  0  0  0  0
    3.6073   -6.0155    4.2849 H   0  0  0  0  0  0  0  0  0  0  0  0
    4.3904   -6.3785    5.8249 H   0  0  0  0  0  0  0  0  0  0  0  0
    5.6876   -4.2077    5.7767 H   0  0  0  0  0  0  0  0  0  0  0  0
    5.9651   -5.3368    4.4278 H   0  0  0  0  0  0  0  0  0  0  0  0
    4.8761   -3.9022    2.8344 H   0  0  0  0  0  0  0  0  0  0  0  0
    6.1347   -3.0818    3.7441 H   0  0  0  0  0  0  0  0  0  0  0  0
    4.4796   -1.8175    5.0890 H   0  0  0  0  0  0  0  0  0  0  0  0
    4.6175   -1.5141    3.3180 H   0  0  0  0  0  0  0  0  0  0  0  0
    2.1445   -2.9965    4.5280 H   0  0  0  0  0  0  0  0  0  0  0  0
    2.4741   -2.4091    2.8685 H   0  0  0  0  0  0  0  0  0  0  0  0
    0.2885   -1.7374    4.8190 H   0  0  0  0  0  0  0  0  0  0  0  0
    0.7828    0.8888    6.0117 H   0  0  0  0  0  0  0  0  0  0  0  0
    0.2383    1.1395    4.3346 H   0  0  0  0  0  0  0  0  0  0  0  0
   -1.5951    1.1529    5.9881 H   0  0  0  0  0  0  0  0  0  0  0  0
   -1.1031   -0.5052    6.5888 H   0  0  0  0  0  0  0  0  0  0  0  0
   -3.0566   -0.7236    5.1860 H   0  0  0  0  0  0  0  0  0  0  0  0
   -1.6740   -1.2874    4.1186 H   0  0  0  0  0  0  0  0  0  0  0  0
   -1.4538    0.9654    3.2147 H   0  0  0  0  0  0  0  0  0  0  0  0
   -2.8320    1.5702    4.1200 H   0  0  0  0  0  0  0  0  0  0  0  0
   -2.7991   -0.6824    1.9963 H   0  0  0  0  0  0  0  0  0  0  0  0
   -3.5695    0.9316    1.7882 H   0  0  0  0  0  0  0  0  0  0  0  0
   -5.3814   -0.3032    0.9657 H   0  0  0  0  0  0  0  0  0  0  0  0
   -6.7702   -2.1599    2.5605 H   0  0  0  0  0  0  0  0  0  0  0  0
   -7.4996   -1.2068    1.2110 H   0  0  0  0  0  0  0  0  0  0  0  0
   -7.3612   -0.4847    4.1795 H   0  0  0  0  0  0  0  0  0  0  0  0
   -8.7802   -1.0440    3.1937 H   0  0  0  0  0  0  0  0  0  0  0  0
   -8.8893    1.3320    3.6831 H   0  0  0  0  0  0  0  0  0  0  0  0
   -7.2412    1.6120    3.0993 H   0  0  0  0  0  0  0  0  0  0  0  0
   -9.6807    0.6139    1.4674 H   0  0  0  0  0  0  0  0  0  0  0  0
   -8.0734    1.0347    0.7089 H   0  0  0  0  0  0  0  0  0  0  0  0
   -9.5847    2.7964    0.3143 H   0  0  0  0  0  0  0  0  0  0  0  0
  -10.0037    2.9571    2.0873 H   0  0  0  0  0  0  0  0  0  0  0  0
   -7.7663    5.6940    1.2169 H   0  0  0  0  0  0  0  0  0  0  0  0
  1  2  1  0
  2  3  1  0
  3  4  1  0
  4  5  1  0
  5  6  1  0
  6  7  1  0
  7  8  2  0
  7  9  1  0
  9 10  1  0
 10 11  1  0
 11 12  1  0
 12 13  1  0
 13 14  1  0
 14 15  1  0
 15 16  2  0
 15 17  1  0
 17 18  1  0
 18 19  1  0
 19 20  1  0
 20 21  1  0
 21 22  1  0
 22 23  1  0
 23 24  2  0
 23 25  1  0
 25 26  1  0
 26 27  1  0
 27 28  1  0
 28 29  1  0
 29 30  1  0
 30 31  1  0
 31 32  2  0
 31 33  1  0
 33 34  1  0
 34 35  1  0
 35 36  1  0
 36 37  1  0
 37 38  1  0
 38 39  1  0
 39 40  2  0
 39 41  1  0
 41 42  1  0
 42 43  1  0
 43 44  1  0
 44 45  1  0
 45 46  1  0
 46 47  1  0
 47 48  2  0
 47 49  1  0
 49 50  1  0
 50 51  1  0
 51 52  1  0
 52 53  1  0
 53 54  1  0
 54 55  1  0
 55 56  2  0
 55 57  1  0
 57 58  1  0
 58 59  1  0
 59 60  1  0
 60 61  1  0
 61 62  1  0
 62 63  1  0
 63 64  2  0
 63 65  1  0
 65 66  1  0
 66 67  1  0
 67 68  1  0
 68 69  1  0
 69 70  1  0
 70 71  1  0
 71 72  2  0
 71 73  1  0
 73 74  1  0
 74 75  1  0
 75 76  1  0
 76 77  1  0
 77 78  1  0
 78 79  1  0
 79 80  2  0
 79 81  1  0
  1 82  1  0
  1 83  1  0
  2 84  1  0
  2 85  1  0
  3 86  1  0
  3 87  1  0
  4 88  1  0
  4 89  1  0
  5 90  1  0
  5 91  1  0
  6 92  1  0
  6 93  1  0
  9 94  1  0
 10 95  1  0
 10 96  1  0
 11 97  1  0
 11 98  1  0
 12 99  1  0
 12100  1  0
 13101  1  0
 13102  1  0
 14103  1  0
 14104  1  0
 17105  1  0
 18106  1  0
 18107  1  0
 19108  1  0
 19109  1  0
 20110  1  0
 20111  1  0
 21112  1  0
 21113  1  0
 22114  1  0
 22115  1  0
 25116  1  0
 26117  1  0
 26118  1  0
 27119  1  0
 27120  1  0
 28121  1  0
 28122  1  0
 29123  1  0
 29124  1  0
 30125  1  0
 30126  1  0
 33127  1  0
 34128  1  0
 34129  1  0
 35130  1  0
 35131  1  0
 36132  1  0
 36133  1  0
 37134  1  0
 37135  1  0
 38136  1  0
 38137  1  0
 41138  1  0
 42139  1  0
 42140  1  0
 43141  1  0
 43142  1  0
 44143  1  0
 44144  1  0
 45145  1  0
 45146  1  0
 46147  1  0
 46148  1  0
 49149  1  0
 50150  1  0
 50151  1  0
 51152  1  0
 51153  1  0
 52154  1  0
 52155  1  0
 53156  1  0
 53157  1  0
 54158  1  0
 54159  1  0
 57160  1  0
 58161  1  0
 58162  1  0
 59163  1  0
 59164  1  0
 60165  1  0
 60166  1  0
 61167  1  0
 61168  1  0
 62169  1  0
 62170  1  0
 65171  1  0
 66172  1  0
 66173  1  0
 67174  1  0
 67175  1  0
 68176  1  0
 68177  1  0
 69178  1  0
 69179  1  0
 70180  1  0
 70181  1  0
 73182  1  0
 74183  1  0
 74184  1  0
 75185  1  0
 75186  1  0
 76187  1  0
 76188  1  0
 77189  1  0
 77190  1  0
 78191  1  0
 78192  1  0
 81193  1  0
M  END
$$$$
