
     RDKit          3D

320324  0  0  0  0  0  0  0  0999 V2000
    1.1989    5.2319   -1.1526 O   0  0  0  0  0  0  0  0  0  0  0  0
    2.4897    4.9112   -1.5369 C   0  0  0  0  0  0  0  0  0  0  0  0
    2.7488    5.0296   -3.0036 C   0  0  0  0  0  0  0  0  0  0  0  0
    1.8867    4.1389   -3.8568 C   0  0  0  0  0  0  0  0  0  0  0  0
    2.0326    2.6868   -3.5685 C   0  0  0  0  0  0  0  0  0  0  0  0
    1.1826    1.9642   -4.4233 O   0  0  0  0  0  0  0  0  0  0  0  0
    1.3543    0.6981   -4.1371 O   0  0  0  0  0  0  0  0  0  0  0  0
    1.4377   -0.1379   -5.2387 C   0  0  0  0  0  0  0  0  0  0  0  0
    1.8186   -1.5132   -4.7441 C   0  0  0  0  0  0  0  0  0  0  0  0
    0.8243   -2.0814   -3.8001 C   0  0  0  0  0  0  0  0  0  0  0  0
    0.5616   -1.3017   -2.5576 C   0  0  0  0  0  0  0  0  0  0  0  0
    1.7282   -1.0921   -1.7515 O   0  0  0  0  0  0  0  0  0  0  0  0
    1.5302   -0.3670   -0.5785 C   0  0  0  0  0  0  0  0  0  0  0  0
    0.3212    0.0039   -0.3785 O   0  0  0  0  0  0  0  0  0  0  0  0
    2.5985   -0.0429    0.3553 C   0  0  0  0  0  0  0  0  0  0  0  0
    3.9135   -0.4304    0.1737 C   0  0  0  0  0  0  0  0  0  0  0  0
    4.8242   -0.0182    1.1291 C   0  0  0  0  0  0  0  0  0  0  0  0
    4.5119    0.7381    2.2282 C   0  0  0  0  0  0  0  0  0  0  0  0
    3.2034    1.1148    2.3959 C   0  0  0  0  0  0  0  0  0  0  0  0
    2.2647    0.7223    1.4654 C   0  0  0  0  0  0  0  0  0  0  0  0
    5.5724    1.1193    3.1892 C   0  0  0  0  0  0  0  0  0  0  0  0
    5.3304    1.8735    4.1682 O   0  0  0  0  0  0  0  0  0  0  0  0
    6.8627    0.6212    2.9809 O   0  0  0  0  0  0  0  0  0  0  0  0
    7.9582    0.9202    3.8013 C   0  0  0  0  0  0  0  0  0  0  0  0
    9.1943    0.1752    3.4260 C   0  0  0  0  0  0  0  0  0  0  0  0
    9.6654    0.4253    2.0092 C   0  0  0  0  0  0  0  0  0  0  0  0
   10.9132   -0.4041    1.7291 C   0  0  0  0  0  0  0  0  0  0  0  0
   11.3506   -0.2212    0.3969 O   0  0  0  0  0  0  0  0  0  0  0  0
   12.4841   -0.9867    0.0479 C   0  0  0  0  0  0  0  0  0  0  0  0
   12.9755   -1.7200    0.9326 O   0  0  0  0  0  0  0  0  0  0  0  0
   13.0945   -0.9557   -1.2924 C   0  0  0  0  0  0  0  0  0  0  0  0
   12.4727   -2.0931   -2.0894 C   0  0  0  0  0  0  0  0  0  0  0  0
   13.0056   -2.1906   -3.4901 C   0  0  0  0  0  0  0  0  0  0  0  0
   12.7973   -0.9200   -4.2838 C   0  0  0  0  0  0  0  0  0  0  0  0
   11.3960   -0.5329   -4.4259 C   0  0  0  0  0  0  0  0  0  0  0  0
   10.8977   -0.4007   -5.5788 O   0  0  0  0  0  0  0  0  0  0  0  0
   10.6241   -0.3161   -3.3005 O   0  0  0  0  0  0  0  0  0  0  0  0
    9.2864    0.0673   -3.3263 C   0  0  0  0  0  0  0  0  0  0  0  0
    8.3450   -0.8150   -4.0517 C   0  0  0  0  0  0  0  0  0  0  0  0
    8.2020   -2.2218   -3.5544 C   0  0  0  0  0  0  0  0  0  0  0  0
    7.7073   -2.3668   -2.1658 C   0  0  0  0  0  0  0  0  0  0  0  0
    7.5184   -3.7403   -1.7528 O   0  0  0  0  0  0  0  0  0  0  0  0
    6.9588   -3.8415   -0.4770 C   0  0  0  0  0  0  0  0  0  0  0  0
    6.7564   -2.6846    0.0714 O   0  0  0  0  0  0  0  0  0  0  0  0
    6.6051   -5.0435    0.2113 C   0  0  0  0  0  0  0  0  0  0  0  0
    6.8224   -6.3338   -0.1875 C   0  0  0  0  0  0  0  0  0  0  0  0
    6.3241   -7.4422    0.5286 C   0  0  0  0  0  0  0  0  0  0  0  0
    5.5901   -7.2556    1.6713 C   0  0  0  0  0  0  0  0  0  0  0  0
    5.3688   -5.9524    2.0880 C   0  0  0  0  0  0  0  0  0  0  0  0
    5.8539   -4.8876    1.3889 C   0  0  0  0  0  0  0  0  0  0  0  0
    4.9577   -8.3600    2.4193 C   0  0  0  0  0  0  0  0  0  0  0  0
    5.1118   -9.5647    2.1170 O   0  0  0  0  0  0  0  0  0  0  0  0
    4.1681   -8.0262    3.4593 O   0  0  0  0  0  0  0  0  0  0  0  0
    3.3766   -8.8378    4.3184 C   0  0  0  0  0  0  0  0  0  0  0  0
    2.4436   -9.5891    3.4007 C   0  0  0  0  0  0  0  0  0  0  0  0
    1.3318  -10.3421    4.0515 C   0  0  0  0  0  0  0  0  0  0  0  0
    0.5787  -11.0557    2.8870 C   0  0  0  0  0  0  0  0  0  0  0  0
    0.3526  -10.0686    1.9126 O   0  0  0  0  0  0  0  0  0  0  0  0
   -0.2913  -10.2307    0.7342 C   0  0  0  0  0  0  0  0  0  0  0  0
   -0.8140  -11.3331    0.4135 O   0  0  0  0  0  0  0  0  0  0  0  0
   -0.3641   -9.0579   -0.1978 C   0  0  0  0  0  0  0  0  0  0  0  0
    0.6375   -8.0055    0.2706 C   0  0  0  0  0  0  0  0  0  0  0  0
    0.6268   -6.8894   -0.7240 C   0  0  0  0  0  0  0  0  0  0  0  0
    1.5521   -5.7707   -0.3818 C   0  0  0  0  0  0  0  0  0  0  0  0
    1.2920   -5.0356    0.8287 C   0  0  0  0  0  0  0  0  0  0  0  0
    1.7503   -3.8307    0.8889 O   0  0  0  0  0  0  0  0  0  0  0  0
    0.6017   -5.4321    1.9655 O   0  0  0  0  0  0  0  0  0  0  0  0
    0.4280   -4.4955    3.0367 C   0  0  0  0  0  0  0  0  0  0  0  0
   -0.4192   -5.0776    4.1645 C   0  0  0  0  0  0  0  0  0  0  0  0
   -0.7684   -4.0227    5.1453 C   0  0  0  0  0  0  0  0  0  0  0  0
    0.3426   -3.3783    5.9201 C   0  0  0  0  0  0  0  0  0  0  0  0
   -0.2352   -2.2705    6.5181 O   0  0  0  0  0  0  0  0  0  0  0  0
    0.1381   -1.4022    7.4657 C   0  0  0  0  0  0  0  0  0  0  0  0
    1.2490   -1.6010    8.0337 O   0  0  0  0  0  0  0  0  0  0  0  0
   -0.7503   -0.2841    7.7730 C   0  0  0  0  0  0  0  0  0  0  0  0
   -0.6469    0.5649    8.8379 C   0  0  0  0  0  0  0  0  0  0  0  0
   -1.4894    1.6846    8.9279 C   0  0  0  0  0  0  0  0  0  0  0  0
   -2.4349    1.9822    7.9800 C   0  0  0  0  0  0  0  0  0  0  0  0
   -2.5397    1.1228    6.9072 C   0  0  0  0  0  0  0  0  0  0  0  0
   -1.7176    0.0315    6.8241 C   0  0  0  0  0  0  0  0  0  0  0  0
   -3.3469    3.1187    8.0406 C   0  0  0  0  0  0  0  0  0  0  0  0
   -3.4881    3.8240    9.0692 O   0  0  0  0  0  0  0  0  0  0  0  0
   -4.0699    3.4334    6.9301 O   0  0  0  0  0  0  0  0  0  0  0  0
   -5.0016    4.4516    6.7288 C   0  0  0  0  0  0  0  0  0  0  0  0
   -5.4232    4.5449    5.2714 C   0  0  0  0  0  0  0  0  0  0  0  0
   -6.0135    3.3168    4.6939 C   0  0  0  0  0  0  0  0  0  0  0  0
   -6.3077    3.5042    3.2210 C   0  0  0  0  0  0  0  0  0  0  0  0
   -6.8200    2.3266    2.6352 O   0  0  0  0  0  0  0  0  0  0  0  0
   -7.0326    2.1993    1.2752 C   0  0  0  0  0  0  0  0  0  0  0  0
   -6.7688    3.1536    0.4785 O   0  0  0  0  0  0  0  0  0  0  0  0
   -7.5595    0.9589    0.6996 C   0  0  0  0  0  0  0  0  0  0  0  0
   -7.3288    0.8488   -0.7982 C   0  0  0  0  0  0  0  0  0  0  0  0
   -7.9120   -0.4356   -1.2993 C   0  0  0  0  0  0  0  0  0  0  0  0
   -7.7247   -0.7031   -2.7523 C   0  0  0  0  0  0  0  0  0  0  0  0
   -6.2850   -0.8258   -3.1570 C   0  0  0  0  0  0  0  0  0  0  0  0
   -5.5881    0.1898   -3.4180 O   0  0  0  0  0  0  0  0  0  0  0  0
   -5.7897   -2.1043   -3.2246 O   0  0  0  0  0  0  0  0  0  0  0  0
   -4.5015   -2.4259   -3.5847 C   0  0  0  0  0  0  0  0  0  0  0  0
   -4.0904   -1.9893   -4.9793 C   0  0  0  0  0  0  0  0  0  0  0  0
   -4.9981   -2.5275   -6.0306 C   0  0  0  0  0  0  0  0  0  0  0  0
   -4.5794   -2.1540   -7.4342 C   0  0  0  0  0  0  0  0  0  0  0  0
   -4.4396   -0.7941   -7.6661 O   0  0  0  0  0  0  0  0  0  0  0  0
   -5.3475    0.1866   -7.4253 C   0  0  0  0  0  0  0  0  0  0  0  0
   -6.4657   -0.0966   -6.9307 O   0  0  0  0  0  0  0  0  0  0  0  0
   -4.9591    1.5673   -7.7535 C   0  0  0  0  0  0  0  0  0  0  0  0
   -5.6837    2.6662   -7.3395 C   0  0  0  0  0  0  0  0  0  0  0  0
   -5.2709    3.9584   -7.6694 C   0  0  0  0  0  0  0  0  0  0  0  0
   -4.1347    4.1738   -8.4156 C   0  0  0  0  0  0  0  0  0  0  0  0
   -3.3921    3.0738   -8.8472 C   0  0  0  0  0  0  0  0  0  0  0  0
   -3.8298    1.8241   -8.5016 C   0  0  0  0  0  0  0  0  0  0  0  0
   -3.6334    5.5534   -8.6806 C   0  0  0  0  0  0  0  0  0  0  0  0
   -4.2145    6.4424   -8.0400 O   0  0  0  0  0  0  0  0  0  0  0  0
   -2.6270    5.6857   -9.5575 O   0  0  0  0  0  0  0  0  0  0  0  0
   -1.9148    6.8117   -9.9603 C   0  0  0  0  0  0  0  0  0  0  0  0
   -0.8652    7.1686   -8.9855 C   0  0  0  0  0  0  0  0  0  0  0  0
   -1.3052    7.5431   -7.6392 C   0  0  0  0  0  0  0  0  0  0  0  0
   -2.1187    8.8275   -7.5944 C   0  0  0  0  0  0  0  0  0  0  0  0
   -2.4588    9.0173   -6.2128 O   0  0  0  0  0  0  0  0  0  0  0  0
   -3.0464   10.1773   -5.7541 C   0  0  0  0  0  0  0  0  0  0  0  0
   -3.2974   11.1270   -6.5848 O   0  0  0  0  0  0  0  0  0  0  0  0
   -3.4088   10.3966   -4.3061 C   0  0  0  0  0  0  0  0  0  0  0  0
   -3.2952   11.8724   -4.0974 C   0  0  0  0  0  0  0  0  0  0  0  0
   -3.6199   12.3323   -2.7231 C   0  0  0  0  0  0  0  0  0  0  0  0
   -2.8720   11.6701   -1.6183 C   0  0  0  0  0  0  0  0  0  0  0  0
   -1.3909   11.7020   -1.7477 C   0  0  0  0  0  0  0  0  0  0  0  0
   -0.7856   12.3467   -2.6339 O   0  0  0  0  0  0  0  0  0  0  0  0
   -0.7013   10.9237   -0.7897 O   0  0  0  0  0  0  0  0  0  0  0  0
    0.6899   10.8740   -0.8926 C   0  0  0  0  0  0  0  0  0  0  0  0
    1.3940   10.0206    0.0885 C   0  0  0  0  0  0  0  0  0  0  0  0
    1.3525   10.3951    1.5226 C   0  0  0  0  0  0  0  0  0  0  0  0
    2.1134    9.3178    2.3324 C   0  0  0  0  0  0  0  0  0  0  0  0
    1.3588    8.1446    2.2237 O   0  0  0  0  0  0  0  0  0  0  0  0
    1.7492    6.9057    2.7025 C   0  0  0  0  0  0  0  0  0  0  0  0
    2.8913    6.8295    3.2283 O   0  0  0  0  0  0  0  0  0  0  0  0
    0.8600    5.7538    2.5996 C   0  0  0  0  0  0  0  0  0  0  0  0
   -0.4271    5.8987    2.1366 C   0  0  0  0  0  0  0  0  0  0  0  0
   -1.3309    4.8346    2.0696 C   0  0  0  0  0  0  0  0  0  0  0  0
   -0.9472    3.5587    2.4811 C   0  0  0  0  0  0  0  0  0  0  0  0
    0.3456    3.4221    2.9399 C   0  0  0  0  0  0  0  0  0  0  0  0
    1.2266    4.4821    2.9997 C   0  0  0  0  0  0  0  0  0  0  0  0
   -1.9102    2.4987    2.4999 C   0  0  0  0  0  0  0  0  0  0  0  0
   -3.1314    2.8496    2.3438 O   0  0  0  0  0  0  0  0  0  0  0  0
   -1.6829    1.1553    2.6626 O   0  0  0  0  0  0  0  0  0  0  0  0
   -2.8802    0.3402    2.6906 C   0  0  0  0  0  0  0  0  0  0  0  0
   -2.5442   -1.1090    2.6240 C   0  0  0  0  0  0  0  0  0  0  0  0
   -3.7537   -2.0418    2.7592 C   0  0  0  0  0  0  0  0  0  0  0  0
   -4.3757   -1.9368    4.1102 C   0  0  0  0  0  0  0  0  0  0  0  0
   -5.4650   -2.7208    4.4163 O   0  0  0  0  0  0  0  0  0  0  0  0
   -6.7474   -2.7630    3.9558 C   0  0  0  0  0  0  0  0  0  0  0  0
   -7.0716   -1.9416    3.0590 O   0  0  0  0  0  0  0  0  0  0  0  0
   -7.6517   -3.7677    4.5553 C   0  0  0  0  0  0  0  0  0  0  0  0
   -8.9983   -3.9424    4.0759 C   0  0  0  0  0  0  0  0  0  0  0  0
   -9.3215   -4.5632    2.8118 C   0  0  0  0  0  0  0  0  0  0  0  0
   -8.8115   -4.1622    1.5200 C   0  0  0  0  0  0  0  0  0  0  0  0
   -7.4321   -4.3592    1.1250 C   0  0  0  0  0  0  0  0  0  0  0  0
   -6.6199   -3.5350    0.6547 O   0  0  0  0  0  0  0  0  0  0  0  0
   -6.9114   -5.6751    1.2760 O   0  0  0  0  0  0  0  0  0  0  0  0
   -5.5607   -5.7923    0.8395 C   0  0  0  0  0  0  0  0  0  0  0  0
   -5.0001   -7.1633    0.9713 C   0  0  0  0  0  0  0  0  0  0  0  0
   -4.9560   -7.6914    2.3762 C   0  0  0  0  0  0  0  0  0  0  0  0
   -4.0792   -6.7400    3.2129 C   0  0  0  0  0  0  0  0  0  0  0  0
   -3.9721   -7.1757    4.5138 O   0  0  0  0  0  0  0  0  0  0  0  0
    0.6001    4.6261   -1.6663 H   0  0  0  0  0  0  0  0  0  0  0  0
    3.1497    5.6551   -1.0322 H   0  0  0  0  0  0  0  0  0  0  0  0
    2.7447    3.9306   -1.1195 H   0  0  0  0  0  0  0  0  0  0  0  0
    3.8234    4.8144   -3.1831 H   0  0  0  0  0  0  0  0  0  0  0  0
    2.6262    6.1104   -3.2722 H   0  0  0  0  0  0  0  0  0  0  0  0
    2.2665    4.2917   -4.9097 H   0  0  0  0  0  0  0  0  0  0  0  0
    0.8303    4.4336   -3.8061 H   0  0  0  0  0  0  0  0  0  0  0  0
    1.7661    2.4091   -2.5260 H   0  0  0  0  0  0  0  0  0  0  0  0
    3.0889    2.4168   -3.7104 H   0  0  0  0  0  0  0  0  0  0  0  0
    0.4773   -0.1842   -5.7623 H   0  0  0  0  0  0  0  0  0  0  0  0
    2.2136    0.2013   -5.9483 H   0  0  0  0  0  0  0  0  0  0  0  0
    1.8142   -2.2029   -5.6383 H   0  0  0  0  0  0  0  0  0  0  0  0
    2.8034   -1.5504   -4.2849 H   0  0  0  0  0  0  0  0  0  0  0  0
   -0.1903   -2.2419   -4.2864 H   0  0  0  0  0  0  0  0  0  0  0  0
    1.1166   -3.1340   -3.5239 H   0  0  0  0  0  0  0  0  0  0  0  0
   -0.0463   -0.3937   -2.6755 H   0  0  0  0  0  0  0  0  0  0  0  0
   -0.0768   -1.9761   -1.9079 H   0  0  0  0  0  0  0  0  0  0  0  0
    4.1585   -1.0203   -0.6786 H   0  0  0  0  0  0  0  0  0  0  0  0
    5.8513   -0.3030    1.0074 H   0  0  0  0  0  0  0  0  0  0  0  0
    2.9273    1.7059    3.2600 H   0  0  0  0  0  0  0  0  0  0  0  0
    1.2230    0.9916    1.5562 H   0  0  0  0  0  0  0  0  0  0  0  0
    7.6796    0.6147    4.8529 H   0  0  0  0  0  0  0  0  0  0  0  0
    8.1362    2.0295    3.8131 H   0  0  0  0  0  0  0  0  0  0  0  0
    9.0594   -0.9253    3.5062 H   0  0  0  0  0  0  0  0  0  0  0  0
   10.0369    0.4135    4.1501 H   0  0  0  0  0  0  0  0  0  0  0  0
    8.8724    0.1575    1.2908 H   0  0  0  0  0  0  0  0  0  0  0  0
    9.9558    1.4873    1.9194 H   0  0  0  0  0  0  0  0  0  0  0  0
   10.7117   -1.4756    1.9551 H   0  0  0  0  0  0  0  0  0  0  0  0
   11.7471   -0.0903    2.4061 H   0  0  0  0  0  0  0  0  0  0  0  0
   14.2001   -1.1562   -1.1482 H   0  0  0  0  0  0  0  0  0  0  0  0
   13.0400    0.0100   -1.8000 H   0  0  0  0  0  0  0  0  0  0  0  0
   11.3895   -2.1138   -2.0863 H   0  0  0  0  0  0  0  0  0  0  0  0
   12.8023   -3.0314   -1.5683 H   0  0  0  0  0  0  0  0  0  0  0  0
   12.4061   -2.9896   -3.9962 H   0  0  0  0  0  0  0  0  0  0  0  0
   14.0574   -2.5287   -3.5427 H   0  0  0  0  0  0  0  0  0  0  0  0
   13.3707   -0.0626   -3.8595 H   0  0  0  0  0  0  0  0  0  0  0  0
   13.2414   -1.1132   -5.3027 H   0  0  0  0  0  0  0  0  0  0  0  0
    9.2634    1.0640   -3.8542 H   0  0  0  0  0  0  0  0  0  0  0  0
    8.9299    0.3021   -2.2839 H   0  0  0  0  0  0  0  0  0  0  0  0
    8.6756   -0.8568   -5.1179 H   0  0  0  0  0  0  0  0  0  0  0  0
    7.3562   -0.2816   -4.0707 H   0  0  0  0  0  0  0  0  0  0  0  0
    7.5535   -2.7603   -4.2877 H   0  0  0  0  0  0  0  0  0  0  0  0
    9.2462   -2.6558   -3.5971 H   0  0  0  0  0  0  0  0  0  0  0  0
    6.7445   -1.8426   -2.0420 H   0  0  0  0  0  0  0  0  0  0  0  0
    8.4309   -1.8932   -1.4649 H   0  0  0  0  0  0  0  0  0  0  0  0
    7.3964   -6.4679   -1.0938 H   0  0  0  0  0  0  0  0  0  0  0  0
    6.5244   -8.4609    0.1749 H   0  0  0  0  0  0  0  0  0  0  0  0
    4.7884   -5.7677    2.9975 H   0  0  0  0  0  0  0  0  0  0  0  0
    5.6381   -3.8879    1.7777 H   0  0  0  0  0  0  0  0  0  0  0  0
    3.9752   -9.4866    4.9553 H   0  0  0  0  0  0  0  0  0  0  0  0
    2.7750   -8.1695    4.9563 H   0  0  0  0  0  0  0  0  0  0  0  0
    3.0794  -10.3675    2.9001 H   0  0  0  0  0  0  0  0  0  0  0  0
    2.0382   -8.8725    2.6469 H   0  0  0  0  0  0  0  0  0  0  0  0
    1.7218  -11.1226    4.6993 H   0  0  0  0  0  0  0  0  0  0  0  0
    0.6003   -9.6563    4.4779 H   0  0  0  0  0  0  0  0  0  0  0  0
   -0.4001  -11.4413    3.2397 H   0  0  0  0  0  0  0  0  0  0  0  0
    1.1677  -11.9139    2.5285 H   0  0  0  0  0  0  0  0  0  0  0  0
   -0.1044   -9.3277   -1.2203 H   0  0  0  0  0  0  0  0  0  0  0  0
   -1.3557   -8.6197   -0.1095 H   0  0  0  0  0  0  0  0  0  0  0  0
    0.3466   -7.6087    1.2528 H   0  0  0  0  0  0  0  0  0  0  0  0
    1.6707   -8.4285    0.3417 H   0  0  0  0  0  0  0  0  0  0  0  0
   -0.4463   -6.5318   -0.7891 H   0  0  0  0  0  0  0  0  0  0  0  0
    0.8247   -7.3134   -1.7370 H   0  0  0  0  0  0  0  0  0  0  0  0
    2.5935   -6.1827   -0.3703 H   0  0  0  0  0  0  0  0  0  0  0  0
    1.5691   -5.1035   -1.3074 H   0  0  0  0  0  0  0  0  0  0  0  0
    1.4161   -4.1861    3.4538 H   0  0  0  0  0  0  0  0  0  0  0  0
   -0.0741   -3.6003    2.6537 H   0  0  0  0  0  0  0  0  0  0  0  0
    0.2185   -5.8580    4.6719 H   0  0  0  0  0  0  0  0  0  0  0  0
   -1.2983   -5.5971    3.7885 H   0  0  0  0  0  0  0  0  0  0  0  0
   -1.3915   -3.2173    4.7090 H   0  0  0  0  0  0  0  0  0  0  0  0
   -1.4373   -4.4862    5.9481 H   0  0  0  0  0  0  0  0  0  0  0  0
    1.2018   -3.1436    5.2627 H   0  0  0  0  0  0  0  0  0  0  0  0
    0.7682   -4.0358    6.7224 H   0  0  0  0  0  0  0  0  0  0  0  0
    0.0963    0.3360    9.5856 H   0  0  0  0  0  0  0  0  0  0  0  0
   -1.3928    2.3659    9.7812 H   0  0  0  0  0  0  0  0  0  0  0  0
   -3.2762    1.3095    6.1196 H   0  0  0  0  0  0  0  0  0  0  0  0
   -1.8456   -0.6122    5.9572 H   0  0  0  0  0  0  0  0  0  0  0  0
   -4.6348    5.4552    7.0572 H   0  0  0  0  0  0  0  0  0  0  0  0
   -5.9186    4.2184    7.2981 H   0  0  0  0  0  0  0  0  0  0  0  0
   -6.2044    5.3667    5.2570 H   0  0  0  0  0  0  0  0  0  0  0  0
   -4.6165    4.9292    4.6079 H   0  0  0  0  0  0  0  0  0  0  0  0
   -7.0263    3.1879    5.1792 H   0  0  0  0  0  0  0  0  0  0  0  0
   -5.4664    2.3937    4.8742 H   0  0  0  0  0  0  0  0  0  0  0  0
   -7.1789    4.2471    3.1891 H   0  0  0  0  0  0  0  0  0  0  0  0
   -5.5239    4.0010    2.6563 H   0  0  0  0  0  0  0  0  0  0  0  0
   -8.6624    0.8698    0.8874 H   0  0  0  0  0  0  0  0  0  0  0  0
   -7.0646    0.0866    1.1707 H   0  0  0  0  0  0  0  0  0  0  0  0
   -6.2134    0.8317   -0.9453 H   0  0  0  0  0  0  0  0  0  0  0  0
   -7.7336    1.7269   -1.3356 H   0  0  0  0  0  0  0  0  0  0  0  0
   -9.0198   -0.3901   -1.1229 H   0  0  0  0  0  0  0  0  0  0  0  0
   -7.5623   -1.3197   -0.7238 H   0  0  0  0  0  0  0  0  0  0  0  0
   -8.2600   -1.6399   -3.0129 H   0  0  0  0  0  0  0  0  0  0  0  0
   -8.2328    0.0931   -3.3651 H   0  0  0  0  0  0  0  0  0  0  0  0
   -3.7720   -1.9094   -2.8821 H   0  0  0  0  0  0  0  0  0  0  0  0
   -4.2925   -3.5018   -3.4967 H   0  0  0  0  0  0  0  0  0  0  0  0
   -3.0452   -2.3797   -5.1396 H   0  0  0  0  0  0  0  0  0  0  0  0
   -3.9884   -0.8827   -5.0398 H   0  0  0  0  0  0  0  0  0  0  0  0
   -6.0758   -2.2894   -5.8504 H   0  0  0  0  0  0  0  0  0  0  0  0
   -4.9387   -3.6561   -5.9864 H   0  0  0  0  0  0  0  0  0  0  0  0
   -3.5665   -2.6070   -7.6680 H   0  0  0  0  0  0  0  0  0  0  0  0
   -5.2549   -2.6634   -8.1675 H   0  0  0  0  0  0  0  0  0  0  0  0
   -6.5903    2.4940   -6.7516 H   0  0  0  0  0  0  0  0  0  0  0  0
   -5.8574    4.8054   -7.3270 H   0  0  0  0  0  0  0  0  0  0  0  0
   -2.4881    3.2086   -9.4535 H   0  0  0  0  0  0  0  0  0  0  0  0
   -3.2686    0.9710   -8.8413 H   0  0  0  0  0  0  0  0  0  0  0  0
   -2.6501    7.6765  -10.1055 H   0  0  0  0  0  0  0  0  0  0  0  0
   -1.4692    6.6050  -10.9598 H   0  0  0  0  0  0  0  0  0  0  0  0
   -0.1856    6.2526   -8.8618 H   0  0  0  0  0  0  0  0  0  0  0  0
   -0.2132    8.0086   -9.3742 H   0  0  0  0  0  0  0  0  0  0  0  0
   -1.7661    6.7050   -7.0667 H   0  0  0  0  0  0  0  0  0  0  0  0
   -0.3332    7.7210   -7.0363 H   0  0  0  0  0  0  0  0  0  0  0  0
   -2.9836    8.8344   -8.2513 H   0  0  0  0  0  0  0  0  0  0  0  0
   -1.3903    9.6440   -7.8909 H   0  0  0  0  0  0  0  0  0  0  0  0
   -4.3918    9.9725   -4.0718 H   0  0  0  0  0  0  0  0  0  0  0  0
   -2.6636    9.8254   -3.6999 H   0  0  0  0  0  0  0  0  0  0  0  0
   -2.2901   12.2569   -4.4125 H   0  0  0  0  0  0  0  0  0  0  0  0
   -4.0436   12.3496   -4.7902 H   0  0  0  0  0  0  0  0  0  0  0  0
   -3.5097   13.4332   -2.6305 H   0  0  0  0  0  0  0  0  0  0  0  0
   -4.7166   12.0967   -2.5608 H   0  0  0  0  0  0  0  0  0  0  0  0
   -3.2670   10.6607   -1.4604 H   0  0  0  0  0  0  0  0  0  0  0  0
   -3.1782   12.2394   -0.6804 H   0  0  0  0  0  0  0  0  0  0  0  0
    1.0972   11.9351   -0.9098 H   0  0  0  0  0  0  0  0  0  0  0  0
    0.9399   10.5007   -1.9107 H   0  0  0  0  0  0  0  0  0  0  0  0
    2.4691    9.9505   -0.2681 H   0  0  0  0  0  0  0  0  0  0  0  0
    1.0405    8.9468    0.0295 H   0  0  0  0  0  0  0  0  0  0  0  0
    0.3665   10.5729    1.9360 H   0  0  0  0  0  0  0  0  0  0  0  0
    1.9565   11.3078    1.6743 H   0  0  0  0  0  0  0  0  0  0  0  0
    3.1412    9.2124    1.9523 H   0  0  0  0  0  0  0  0  0  0  0  0
    2.1755    9.5967    3.4092 H   0  0  0  0  0  0  0  0  0  0  0  0
   -0.7267    6.8727    1.8220 H   0  0  0  0  0  0  0  0  0  0  0  0
   -2.3184    4.9901    1.6941 H   0  0  0  0  0  0  0  0  0  0  0  0
    0.6521    2.4489    3.2718 H   0  0  0  0  0  0  0  0  0  0  0  0
    2.2100    4.2927    3.3772 H   0  0  0  0  0  0  0  0  0  0  0  0
   -3.5900    0.6594    1.9056 H   0  0  0  0  0  0  0  0  0  0  0  0
   -3.3619    0.5648    3.6859 H   0  0  0  0  0  0  0  0  0  0  0  0
   -2.1703   -1.3007    1.5659 H   0  0  0  0  0  0  0  0  0  0  0  0
   -1.7095   -1.3957    3.2670 H   0  0  0  0  0  0  0  0  0  0  0  0
   -3.4753   -3.0934    2.5662 H   0  0  0  0  0  0  0  0  0  0  0  0
   -4.4770   -1.7125    1.9532 H   0  0  0  0  0  0  0  0  0  0  0  0
   -3.5633   -2.2290    4.8463 H   0  0  0  0  0  0  0  0  0  0  0  0
   -4.5747   -0.8455    4.2780 H   0  0  0  0  0  0  0  0  0  0  0  0
   -7.0563   -4.7318    4.5855 H   0  0  0  0  0  0  0  0  0  0  0  0
   -7.7257   -3.4318    5.6567 H   0  0  0  0  0  0  0  0  0  0  0  0
   -9.5767   -4.5510    4.9097 H   0  0  0  0  0  0  0  0  0  0  0  0
   -9.6103   -2.9602    4.1922 H   0  0  0  0  0  0  0  0  0  0  0  0
   -9.2205   -5.7305    2.9213 H   0  0  0  0  0  0  0  0  0  0  0  0
  -10.4890   -4.5436    2.7127 H   0  0  0  0  0  0  0  0  0  0  0  0
   -9.5300   -4.5171    0.7047 H   0  0  0  0  0  0  0  0  0  0  0  0
   -8.9842   -3.0210    1.4411 H   0  0  0  0  0  0  0  0  0  0  0  0
   -5.6135   -5.4835   -0.2463 H   0  0  0  0  0  0  0  0  0  0  0  0
   -4.9861   -4.9971    1.3406 H   0  0  0  0  0  0  0  0  0  0  0  0
   -5.5288   -7.8521    0.2768 H   0  0  0  0  0  0  0  0  0  0  0  0
   -3.9428   -7.1478    0.5763 H   0  0  0  0  0  0  0  0  0  0  0  0
   -5.9091   -7.8658    2.8549 H   0  0  0  0  0  0  0  0  0  0  0  0
   -4.3526   -8.6475    2.3601 H   0  0  0  0  0  0  0  0  0  0  0  0
   -3.0879   -6.6393    2.7368 H   0  0  0  0  0  0  0  0  0  0  0  0
   -4.5630   -5.7156    3.2041 H   0  0  0  0  0  0  0  0  0  0  0  0
   -3.5096   -6.4811    5.0684 H   0  0  0  0  0  0  0  0  0  0  0  0
  1  2  1  0
  2  3  1  0
  3  4  1  0
  4  5  1  0
  5  6  1  0
  6  7  1  0
  7  8  1  0
  8  9  1  0
  9 10  1  0
 10 11  1  0
 11 12  1  0
 12 13  1  0
 13 14  2  0
 13 15  1  0
 15 16  2  0
 16 17  1  0
 17 18  2  0
 18 19  1  0
 19 20  2  0
 18 21  1  0
 21 22  2  0
 21 23  1  0
 23 24  1  0
 24 25  1  0
 25 26  1  0
 26 27  1  0
 27 28  1  0
 28 29  1  0
 29 30  2  0
 29 31  1  0
 31 32  1  0
 32 33  1  0
 33 34  1  0
 34 35  1  0
 35 36  2  0
 35 37  1  0
 37 38  1  0
 38 39  1  0
 39 40  1  0
 40 41  1  0
 41 42  1  0
 42 43  1  0
 43 44  2  0
 43 45  1  0
 45 46  2  0
 46 47  1  0
 47 48  2  0
 48 49  1  0
 49 50  2  0
 48 51  1  0
 51 52  2  0
 51 53  1  0
 53 54  1  0
 54 55  1  0
 55 56  1  0
 56 57  1  0
 57 58  1  0
 58 59  1  0
 59 60  2  0
 59 61  1  0
 61 62  1  0
 62 63  1  0
 63 64  1  0
 64 65  1  0
 65 66  2  0
 65 67  1  0
 67 68  1  0
 68 69  1  0
 69 70  1  0
 70 71  1  0
 71 72  1  0
 72 73  1  0
 73 74  2  0
 73 75  1  0
 75 76  2  0
 76 77  1  0
 77 78  2  0
 78 79  1  0
 79 80  2  0
 78 81  1  0
 81 82  2  0
 81 83  1  0
 83 84  1  0
 84 85  1  0
 85 86  1  0
 86 87  1  0
 87 88  1  0
 88 89  1  0
 89 90  2  0
 89 91  1  0
 91 92  1  0
 92 93  1  0
 93 94  1  0
 94 95  1  0
 95 96  2  0
 95 97  1  0
 97 98  1  0
 98 99  1  0
 99100  1  0
100101  1  0
101102  1  0
102103  1  0
103104  2  0
103105  1  0
105106  2  0
106107  1  0
107108  2  0
108109  1  0
109110  2  0
108111  1  0
111112  2  0
111113  1  0
113114  1  0
114115  1  0
115116  1  0
116117  1  0
117118  1  0
118119  1  0
119120  2  0
119121  1  0
121122  1  0
122123  1  0
123124  1  0
124125  1  0
125126  2  0
125127  1  0
127128  1  0
128129  1  0
129130  1  0
130131  1  0
131132  1  0
132133  1  0
133134  2  0
133135  1  0
135136  2  0
136137  1  0
137138  2  0
138139  1  0
139140  2  0
138141  1  0
141142  2  0
141143  1  0
143144  1  0
144145  1  0
145146  1  0
146147  1  0
147148  1  0
148149  1  0
149150  2  0
149151  1  0
151152  1  0
152153  1  0
153154  1  0
154155  1  0
155156  2  0
155157  1  0
157158  1  0
158159  1  0
159160  1  0
160161  1  0
161162  1  0
 20 15  1  0
 50 45  1  0
 80 75  1  0
110105  1  0
140135  1  0
  1163  1  0
  2164  1  0
  2165  1  0
  3166  1  0
  3167  1  0
  4168  1  0
  4169  1  0
  5170  1  0
  5171  1  0
  8172  1  0
  8173  1  0
  9174  1  0
  9175  1  0
 10176  1  0
 10177  1  0
 11178  1  0
 11179  1  0
 16180  1  0
 17181  1  0
 19182  1  0
 20183  1  0
 24184  1  0
 24185  1  0
 25186  1  0
 25187  1  0
 26188  1  0
 26189  1  0
 27190  1  0
 27191  1  0
 31192  1  0
 31193  1  0
 32194  1  0
 32195  1  0
 33196  1  0
 33197  1  0
 34198  1  0
 34199  1  0
 38200  1  0
 38201  1  0
 39202  1  0
 39203  1  0
 40204  1  0
 40205  1  0
 41206  1  0
 41207  1  0
 46208  1  0
 47209  1  0
 49210  1  0
 50211  1  0
 54212  1  0
 54213  1  0
 55214  1  0
 55215  1  0
 56216  1  0
 56217  1  0
 57218  1  0
 57219  1  0
 61220  1  0
 61221  1  0
 62222  1  0
 62223  1  0
 63224  1  0
 63225  1  0
 64226  1  0
 64227  1  0
 68228  1  0
 68229  1  0
 69230  1  0
 69231  1  0
 70232  1  0
 70233  1  0
 71234  1  0
 71235  1  0
 76236  1  0
 77237  1  0
 79238  1  0
 80239  1  0
 84240  1  0
 84241  1  0
 85242  1  0
 85243  1  0
 86244  1  0
 86245  1  0
 87246  1  0
 87247  1  0
 91248  1  0
 91249  1  0
 92250  1  0
 92251  1  0
 93252  1  0
 93253  1  0
 94254  1  0
 94255  1  0
 98256  1  0
 98257  1  0
 99258  1  0
 99259  1  0
100260  1  0
100261  1  0
101262  1  0
101263  1  0
106264  1  0
107265  1  0
109266  1  0
110267  1  0
114268  1  0
114269  1  0
115270  1  0
115271  1  0
116272  1  0
116273  1  0
117274  1  0
117275  1  0
121276  1  0
121277  1  0
122278  1  0
122279  1  0
123280  1  0
123281  1  0
124282  1  0
124283  1  0
128284  1  0
128285  1  0
129286  1  0
129287  1  0
130288  1  0
130289  1  0
131290  1  0
131291  1  0
136292  1  0
137293  1  0
139294  1  0
140295  1  0
144296  1  0
144297  1  0
145298  1  0
145299  1  0
146300  1  0
146301  1  0
147302  1  0
147303  1  0
151304  1  0
151305  1  0
152306  1  0
152307  1  0
153308  1  0
153309  1  0
154310  1  0
154311  1  0
158312  1  0
158313  1  0
159314  1  0
159315  1  0
160316  1  0
160317  1  0
161318  1  0
161319  1  0
162320  1  0
M  END
$$$$
