
     RDKit          3D

183182  0  0  0  0  0  0  0  0999 V2000
   -4.8592    5.8912    3.5882 O   0  0  0  0  0  0  0  0  0  0  0  0
   -4.0667    4.9520    4.2297 C   0  0  0  0  0  0  0  0  0  0  0  0
   -3.7634    3.8032    3.3010 C   0  0  0  0  0  0  0  0  0  0  0  0
   -5.0617    3.1137    2.8374 C   0  0  0  0  0  0  0  0  0  0  0  0
   -4.6288    1.9981    1.9490 C   0  0  0  0  0  0  0  0  0  0  0  0
   -5.6944    1.1569    1.3505 C   0  0  0  0  0  0  0  0  0  0  0  0
   -6.5947    0.4768    2.2845 C   0  0  0  0  0  0  0  0  0  0  0  0
   -7.0537    1.0338    3.3351 O   0  0  0  0  0  0  0  0  0  0  0  0
   -7.0017   -0.8501    2.0671 O   0  0  0  0  0  0  0  0  0  0  0  0
   -7.8682   -1.5589    2.9161 C   0  0  0  0  0  0  0  0  0  0  0  0
   -7.9918   -2.9768    2.5132 C   0  0  0  0  0  0  0  0  0  0  0  0
   -8.4653   -3.3052    1.1529 C   0  0  0  0  0  0  0  0  0  0  0  0
   -7.6206   -2.8031    0.0173 C   0  0  0  0  0  0  0  0  0  0  0  0
   -6.2163   -3.2842    0.0672 C   0  0  0  0  0  0  0  0  0  0  0  0
   -6.0192   -4.7502    0.0197 C   0  0  0  0  0  0  0  0  0  0  0  0
   -6.8993   -5.6129   -0.1604 O   0  0  0  0  0  0  0  0  0  0  0  0
   -4.7238   -5.1931    0.1983 O   0  0  0  0  0  0  0  0  0  0  0  0
   -4.2734   -6.5169    0.2015 C   0  0  0  0  0  0  0  0  0  0  0  0
   -2.7709   -6.3746    0.5179 C   0  0  0  0  0  0  0  0  0  0  0  0
   -2.0382   -7.6585    0.6246 C   0  0  0  0  0  0  0  0  0  0  0  0
   -0.5513   -7.3929    0.9589 C   0  0  0  0  0  0  0  0  0  0  0  0
   -0.4359   -6.6512    2.2487 C   0  0  0  0  0  0  0  0  0  0  0  0
    0.9447   -6.3096    2.6677 C   0  0  0  0  0  0  0  0  0  0  0  0
    1.7118   -7.0687    3.2955 O   0  0  0  0  0  0  0  0  0  0  0  0
    1.3920   -5.0433    2.3318 O   0  0  0  0  0  0  0  0  0  0  0  0
    2.6337   -4.4797    2.6492 C   0  0  0  0  0  0  0  0  0  0  0  0
    2.7033   -3.0826    2.0688 C   0  0  0  0  0  0  0  0  0  0  0  0
    3.9745   -2.3419    2.4947 C   0  0  0  0  0  0  0  0  0  0  0  0
    3.8917   -1.0026    1.8511 C   0  0  0  0  0  0  0  0  0  0  0  0
    4.9586   -0.0173    2.1603 C   0  0  0  0  0  0  0  0  0  0  0  0
    4.9726    0.3838    3.6012 C   0  0  0  0  0  0  0  0  0  0  0  0
    5.7309    1.2764    4.0615 O   0  0  0  0  0  0  0  0  0  0  0  0
    4.1265   -0.2405    4.4368 O   0  0  0  0  0  0  0  0  0  0  0  0
    3.8193   -0.1670    5.7786 C   0  0  0  0  0  0  0  0  0  0  0  0
    2.8201   -1.2872    6.0891 C   0  0  0  0  0  0  0  0  0  0  0  0
    1.5522   -1.2240    5.3454 C   0  0  0  0  0  0  0  0  0  0  0  0
    0.5985   -0.1221    5.6072 C   0  0  0  0  0  0  0  0  0  0  0  0
   -0.6184   -0.2716    4.6737 C   0  0  0  0  0  0  0  0  0  0  0  0
   -0.2878   -0.0410    3.2572 C   0  0  0  0  0  0  0  0  0  0  0  0
    0.7365    0.6778    3.0296 O   0  0  0  0  0  0  0  0  0  0  0  0
   -0.9697   -0.5110    2.1773 O   0  0  0  0  0  0  0  0  0  0  0  0
   -0.5490   -0.1373    0.8693 C   0  0  0  0  0  0  0  0  0  0  0  0
   -1.3600   -0.7697   -0.1979 C   0  0  0  0  0  0  0  0  0  0  0  0
   -1.2288   -2.2391   -0.3921 C   0  0  0  0  0  0  0  0  0  0  0  0
    0.1764   -2.5842   -0.9417 C   0  0  0  0  0  0  0  0  0  0  0  0
    0.2161   -4.0736   -1.1159 C   0  0  0  0  0  0  0  0  0  0  0  0
    1.4353   -4.5665   -1.8206 C   0  0  0  0  0  0  0  0  0  0  0  0
    1.5540   -5.8447   -1.8445 O   0  0  0  0  0  0  0  0  0  0  0  0
    2.3643   -3.7543   -2.4139 O   0  0  0  0  0  0  0  0  0  0  0  0
    3.5166   -4.2067   -3.1438 C   0  0  0  0  0  0  0  0  0  0  0  0
    4.2877   -3.0141   -3.6702 C   0  0  0  0  0  0  0  0  0  0  0  0
    4.8909   -2.1925   -2.5379 C   0  0  0  0  0  0  0  0  0  0  0  0
    5.9541   -2.9730   -1.8372 C   0  0  0  0  0  0  0  0  0  0  0  0
    6.5723   -2.2662   -0.6877 C   0  0  0  0  0  0  0  0  0  0  0  0
    7.1817   -0.9582   -0.9363 C   0  0  0  0  0  0  0  0  0  0  0  0
    8.1778   -0.6447   -0.1919 O   0  0  0  0  0  0  0  0  0  0  0  0
    6.8085   -0.0260   -1.8644 O   0  0  0  0  0  0  0  0  0  0  0  0
    7.4857    1.2263   -1.9778 C   0  0  0  0  0  0  0  0  0  0  0  0
    6.8548    2.1097   -3.0453 C   0  0  0  0  0  0  0  0  0  0  0  0
    6.9662    1.4436   -4.3766 C   0  0  0  0  0  0  0  0  0  0  0  0
    6.3624    2.2683   -5.5007 C   0  0  0  0  0  0  0  0  0  0  0  0
    4.8996    2.4592   -5.2296 C   0  0  0  0  0  0  0  0  0  0  0  0
    4.2216    3.2793   -6.3005 C   0  0  0  0  0  0  0  0  0  0  0  0
    3.9674    4.4675   -6.0219 O   0  0  0  0  0  0  0  0  0  0  0  0
    3.9387    2.6685   -7.4751 O   0  0  0  0  0  0  0  0  0  0  0  0
    3.3125    3.1050   -8.6244 C   0  0  0  0  0  0  0  0  0  0  0  0
    1.8416    3.2333   -8.5153 C   0  0  0  0  0  0  0  0  0  0  0  0
    1.2707    4.1587   -7.4925 C   0  0  0  0  0  0  0  0  0  0  0  0
   -0.2509    4.1443   -7.5791 C   0  0  0  0  0  0  0  0  0  0  0  0
   -0.9104    5.0543   -6.6097 C   0  0  0  0  0  0  0  0  0  0  0  0
   -0.6406    4.8037   -5.1862 C   0  0  0  0  0  0  0  0  0  0  0  0
    0.1829    3.9955   -4.7170 O   0  0  0  0  0  0  0  0  0  0  0  0
   -1.3834    5.5443   -4.2602 O   0  0  0  0  0  0  0  0  0  0  0  0
   -1.1284    5.3211   -2.8979 C   0  0  0  0  0  0  0  0  0  0  0  0
   -2.0496    6.0997   -1.9789 C   0  0  0  0  0  0  0  0  0  0  0  0
   -3.4715    5.7491   -2.1492 C   0  0  0  0  0  0  0  0  0  0  0  0
   -4.1527    5.9592   -3.4344 C   0  0  0  0  0  0  0  0  0  0  0  0
   -4.3643    7.3151   -3.9665 C   0  0  0  0  0  0  0  0  0  0  0  0
   -3.2405    8.1923   -4.2515 C   0  0  0  0  0  0  0  0  0  0  0  0
   -2.8419    9.1065   -3.4455 O   0  0  0  0  0  0  0  0  0  0  0  0
   -2.4783    8.1289   -5.4377 O   0  0  0  0  0  0  0  0  0  0  0  0
   -4.4533    6.8063    3.6314 H   0  0  0  0  0  0  0  0  0  0  0  0
   -3.0659    5.4292    4.4470 H   0  0  0  0  0  0  0  0  0  0  0  0
   -4.4974    4.6207    5.1983 H   0  0  0  0  0  0  0  0  0  0  0  0
   -3.2883    4.2033    2.3753 H   0  0  0  0  0  0  0  0  0  0  0  0
   -3.1895    3.0034    3.8029 H   0  0  0  0  0  0  0  0  0  0  0  0
   -5.5862    2.7850    3.7627 H   0  0  0  0  0  0  0  0  0  0  0  0
   -5.7028    3.8688    2.3422 H   0  0  0  0  0  0  0  0  0  0  0  0
   -3.8636    1.3557    2.4416 H   0  0  0  0  0  0  0  0  0  0  0  0
   -4.0605    2.4850    1.1006 H   0  0  0  0  0  0  0  0  0  0  0  0
   -6.3365    1.7912    0.6901 H   0  0  0  0  0  0  0  0  0  0  0  0
   -5.1994    0.4003    0.6942 H   0  0  0  0  0  0  0  0  0  0  0  0
   -7.3958   -1.5127    3.9496 H   0  0  0  0  0  0  0  0  0  0  0  0
   -8.8413   -1.0429    3.0604 H   0  0  0  0  0  0  0  0  0  0  0  0
   -6.9982   -3.5068    2.6503 H   0  0  0  0  0  0  0  0  0  0  0  0
   -8.6534   -3.5488    3.2344 H   0  0  0  0  0  0  0  0  0  0  0  0
   -9.5297   -3.0363    0.9719 H   0  0  0  0  0  0  0  0  0  0  0  0
   -8.4575   -4.4310    1.0734 H   0  0  0  0  0  0  0  0  0  0  0  0
   -8.1309   -3.1325   -0.9250 H   0  0  0  0  0  0  0  0  0  0  0  0
   -7.6131   -1.7115    0.0262 H   0  0  0  0  0  0  0  0  0  0  0  0
   -5.6725   -2.8348   -0.8099 H   0  0  0  0  0  0  0  0  0  0  0  0
   -5.7103   -2.9538    1.0045 H   0  0  0  0  0  0  0  0  0  0  0  0
   -4.3457   -7.0505   -0.7458 H   0  0  0  0  0  0  0  0  0  0  0  0
   -4.7164   -7.1200    1.0337 H   0  0  0  0  0  0  0  0  0  0  0  0
   -2.3713   -5.7301   -0.3150 H   0  0  0  0  0  0  0  0  0  0  0  0
   -2.7113   -5.7430    1.4222 H   0  0  0  0  0  0  0  0  0  0  0  0
   -2.5069   -8.2899    1.4027 H   0  0  0  0  0  0  0  0  0  0  0  0
   -2.1110   -8.2026   -0.3374 H   0  0  0  0  0  0  0  0  0  0  0  0
   -0.0548   -6.9127    0.1031 H   0  0  0  0  0  0  0  0  0  0  0  0
   -0.1026   -8.4066    1.0920 H   0  0  0  0  0  0  0  0  0  0  0  0
   -1.0321   -5.7051    2.2901 H   0  0  0  0  0  0  0  0  0  0  0  0
   -0.8734   -7.3073    3.0491 H   0  0  0  0  0  0  0  0  0  0  0  0
    2.7747   -4.3760    3.7558 H   0  0  0  0  0  0  0  0  0  0  0  0
    3.4614   -5.0986    2.2182 H   0  0  0  0  0  0  0  0  0  0  0  0
    2.7522   -3.1831    0.9599 H   0  0  0  0  0  0  0  0  0  0  0  0
    1.8303   -2.4815    2.3288 H   0  0  0  0  0  0  0  0  0  0  0  0
    3.9151   -2.2787    3.5867 H   0  0  0  0  0  0  0  0  0  0  0  0
    4.8617   -2.9473    2.1779 H   0  0  0  0  0  0  0  0  0  0  0  0
    2.8697   -0.6033    2.1093 H   0  0  0  0  0  0  0  0  0  0  0  0
    3.8414   -1.1003    0.7333 H   0  0  0  0  0  0  0  0  0  0  0  0
    4.7141    0.9127    1.5743 H   0  0  0  0  0  0  0  0  0  0  0  0
    5.9478   -0.3599    1.8520 H   0  0  0  0  0  0  0  0  0  0  0  0
    4.7173   -0.3895    6.3806 H   0  0  0  0  0  0  0  0  0  0  0  0
    3.4464    0.8268    6.1248 H   0  0  0  0  0  0  0  0  0  0  0  0
    3.3618   -2.2360    5.9168 H   0  0  0  0  0  0  0  0  0  0  0  0
    2.7000   -1.2324    7.1930 H   0  0  0  0  0  0  0  0  0  0  0  0
    1.8233   -1.1542    4.2399 H   0  0  0  0  0  0  0  0  0  0  0  0
    1.0688   -2.2302    5.4074 H   0  0  0  0  0  0  0  0  0  0  0  0
    1.0085    0.8809    5.5705 H   0  0  0  0  0  0  0  0  0  0  0  0
    0.1771   -0.2429    6.6365 H   0  0  0  0  0  0  0  0  0  0  0  0
   -1.0225   -1.2776    4.8690 H   0  0  0  0  0  0  0  0  0  0  0  0
   -1.4054    0.4669    4.9618 H   0  0  0  0  0  0  0  0  0  0  0  0
   -0.7285    0.9703    0.8024 H   0  0  0  0  0  0  0  0  0  0  0  0
    0.5118   -0.3045    0.6887 H   0  0  0  0  0  0  0  0  0  0  0  0
   -2.4436   -0.5716    0.0380 H   0  0  0  0  0  0  0  0  0  0  0  0
   -1.1193   -0.2710   -1.1616 H   0  0  0  0  0  0  0  0  0  0  0  0
   -1.4227   -2.8613    0.4777 H   0  0  0  0  0  0  0  0  0  0  0  0
   -1.9301   -2.5458   -1.1910 H   0  0  0  0  0  0  0  0  0  0  0  0
    0.3188   -2.1286   -1.9550 H   0  0  0  0  0  0  0  0  0  0  0  0
    0.9580   -2.1727   -0.2690 H   0  0  0  0  0  0  0  0  0  0  0  0
    0.0793   -4.5234   -0.1103 H   0  0  0  0  0  0  0  0  0  0  0  0
   -0.6627   -4.3621   -1.7065 H   0  0  0  0  0  0  0  0  0  0  0  0
    3.1502   -4.8013   -4.0119 H   0  0  0  0  0  0  0  0  0  0  0  0
    4.1074   -4.8784   -2.5030 H   0  0  0  0  0  0  0  0  0  0  0  0
    3.5999   -2.3809   -4.2270 H   0  0  0  0  0  0  0  0  0  0  0  0
    5.1336   -3.4265   -4.2779 H   0  0  0  0  0  0  0  0  0  0  0  0
    5.3063   -1.2844   -3.0105 H   0  0  0  0  0  0  0  0  0  0  0  0
    4.1087   -1.9182   -1.8076 H   0  0  0  0  0  0  0  0  0  0  0  0
    6.7553   -3.3185   -2.5642 H   0  0  0  0  0  0  0  0  0  0  0  0
    5.5250   -3.9450   -1.4336 H   0  0  0  0  0  0  0  0  0  0  0  0
    7.3581   -2.9932   -0.2755 H   0  0  0  0  0  0  0  0  0  0  0  0
    5.8673   -2.1790    0.1787 H   0  0  0  0  0  0  0  0  0  0  0  0
    8.5572    1.0154   -2.2141 H   0  0  0  0  0  0  0  0  0  0  0  0
    7.4451    1.8024   -1.0169 H   0  0  0  0  0  0  0  0  0  0  0  0
    7.3566    3.0899   -3.0891 H   0  0  0  0  0  0  0  0  0  0  0  0
    5.7926    2.2769   -2.7140 H   0  0  0  0  0  0  0  0  0  0  0  0
    8.0610    1.3051   -4.5768 H   0  0  0  0  0  0  0  0  0  0  0  0
    6.4376    0.4810   -4.3551 H   0  0  0  0  0  0  0  0  0  0  0  0
    6.8954    3.2390   -5.6202 H   0  0  0  0  0  0  0  0  0  0  0  0
    6.4803    1.6973   -6.4447 H   0  0  0  0  0  0  0  0  0  0  0  0
    4.7925    2.9898   -4.2426 H   0  0  0  0  0  0  0  0  0  0  0  0
    4.3467    1.5129   -5.1623 H   0  0  0  0  0  0  0  0  0  0  0  0
    3.5894    2.4122   -9.4798 H   0  0  0  0  0  0  0  0  0  0  0  0
    3.7206    4.1388   -8.8953 H   0  0  0  0  0  0  0  0  0  0  0  0
    1.3876    3.5104   -9.5279 H   0  0  0  0  0  0  0  0  0  0  0  0
    1.4459    2.1857   -8.3263 H   0  0  0  0  0  0  0  0  0  0  0  0
    1.5432    3.8173   -6.4640 H   0  0  0  0  0  0  0  0  0  0  0  0
    1.6489    5.1743   -7.6277 H   0  0  0  0  0  0  0  0  0  0  0  0
   -0.5677    4.3388   -8.6354 H   0  0  0  0  0  0  0  0  0  0  0  0
   -0.5881    3.0955   -7.3741 H   0  0  0  0  0  0  0  0  0  0  0  0
   -2.0264    5.0980   -6.8119 H   0  0  0  0  0  0  0  0  0  0  0  0
   -0.5837    6.1261   -6.7881 H   0  0  0  0  0  0  0  0  0  0  0  0
   -0.1136    5.7547   -2.7165 H   0  0  0  0  0  0  0  0  0  0  0  0
   -1.0636    4.2672   -2.6101 H   0  0  0  0  0  0  0  0  0  0  0  0
   -1.7338    5.7739   -0.9354 H   0  0  0  0  0  0  0  0  0  0  0  0
   -1.7693    7.1557   -2.0219 H   0  0  0  0  0  0  0  0  0  0  0  0
   -4.0426    6.3524   -1.3686 H   0  0  0  0  0  0  0  0  0  0  0  0
   -3.6388    4.6841   -1.7787 H   0  0  0  0  0  0  0  0  0  0  0  0
   -3.7433    5.2531   -4.2464 H   0  0  0  0  0  0  0  0  0  0  0  0
   -5.1985    5.5093   -3.3160 H   0  0  0  0  0  0  0  0  0  0  0  0
   -5.0308    7.1890   -4.8913 H   0  0  0  0  0  0  0  0  0  0  0  0
   -5.0742    7.9216   -3.2992 H   0  0  0  0  0  0  0  0  0  0  0  0
   -2.2283    8.9703   -5.9424 H   0  0  0  0  0  0  0  0  0  0  0  0
  1  2  1  0
  2  3  1  0
  3  4  1  0
  4  5  1  0
  5  6  1  0
  6  7  1  0
  7  8  2  0
  7  9  1  0
  9 10  1  0
 10 11  1  0
 11 12  1  0
 12 13  1  0
 13 14  1  0
 14 15  1  0
 15 16  2  0
 15 17  1  0
 17 18  1  0
 18 19  1  0
 19 20  1  0
 20 21  1  0
 21 22  1  0
 22 23  1  0
 23 24  2  0
 23 25  1  0
 25 26  1  0
 26 27  1  0
 27 28  1  0
 28 29  1  0
 29 30  1  0
 30 31  1  0
 31 32  2  0
 31 33  1  0
 33 34  1  0
 34 35  1  0
 35 36  1  0
 36 37  1  0
 37 38  1  0
 38 39  1  0
 39 40  2  0
 39 41  1  0
 41 42  1  0
 42 43  1  0
 43 44  1  0
 44 45  1  0
 45 46  1  0
 46 47  1  0
 47 48  2  0
 47 49  1  0
 49 50  1  0
 50 51  1  0
 51 52  1  0
 52 53  1  0
 53 54  1  0
 54 55  1  0
 55 56  2  0
 55 57  1  0
 57 58  1  0
 58 59  1  0
 59 60  1  0
 60 61  1  0
 61 62  1  0
 62 63  1  0
 63 64  2  0
 63 65  1  0
 65 66  1  0
 66 67  1  0
 67 68  1  0
 68 69  1  0
 69 70  1  0
 70 71  1  0
 71 72  2  0
 71 73  1  0
 73 74  1  0
 74 75  1  0
 75 76  1  0
 76 77  1  0
 77 78  1  0
 78 79  1  0
 79 80  2  0
 79 81  1  0
  1 82  1  0
  2 83  1  0
  2 84  1  0
  3 85  1  0
  3 86  1  0
  4 87  1  0
  4 88  1  0
  5 89  1  0
  5 90  1  0
  6 91  1  0
  6 92  1  0
 10 93  1  0
 10 94  1  0
 11 95  1  0
 11 96  1  0
 12 97  1  0
 12 98  1  0
 13 99  1  0
 13100  1  0
 14101  1  0
 14102  1  0
 18103  1  0
 18104  1  0
 19105  1  0
 19106  1  0
 20107  1  0
 20108  1  0
 21109  1  0
 21110  1  0
 22111  1  0
 22112  1  0
 26113  1  0
 26114  1  0
 27115  1  0
 27116  1  0
 28117  1  0
 28118  1  0
 29119  1  0
 29120  1  0
 30121  1  0
 30122  1  0
 34123  1  0
 34124  1  0
 35125  1  0
 35126  1  0
 36127  1  0
 36128  1  0
 37129  1  0
 37130  1  0
 38131  1  0
 38132  1  0
 42133  1  0
 42134  1  0
 43135  1  0
 43136  1  0
 44137  1  0
 44138  1  0
 45139  1  0
 45140  1  0
 46141  1  0
 46142  1  0
 50143  1  0
 50144  1  0
 51145  1  0
 51146  1  0
 52147  1  0
 52148  1  0
 53149  1  0
 53150  1  0
 54151  1  0
 54152  1  0
 58153  1  0
 58154  1  0
 59155  1  0
 59156  1  0
 60157  1  0
 60158  1  0
 61159  1  0
 61160  1  0
 62161  1  0
 62162  1  0
 66163  1  0
 66164  1  0
 67165  1  0
 67166  1  0
 68167  1  0
 68168  1  0
 69169  1  0
 69170  1  0
 70171  1  0
 70172  1  0
 74173  1  0
 74174  1  0
 75175  1  0
 75176  1  0
 76177  1  0
 76178  1  0
 77179  1  0
 77180  1  0
 78181  1  0
 78182  1  0
 81183  1  0
M  END
$$$$
