
     RDKit          3D

193202  0  0  0  0  0  0  0  0999 V2000
    4.1563   -0.1228    6.5535 O   0  0  0  0  0  0  0  0  0  0  0  0
    3.1661   -0.8907    6.0423 C   0  0  0  0  0  0  0  0  0  0  0  0
    3.4787   -1.3355    4.5719 C   0  0  0  0  0  0  0  0  0  0  0  0
    2.3997   -2.0651    4.2208 O   0  0  0  0  0  0  0  0  0  0  0  0
    1.8610   -2.7614    3.1952 C   0  0  0  0  0  0  0  0  0  0  0  0
    2.5922   -2.7814    2.1438 O   0  0  0  0  0  0  0  0  0  0  0  0
    0.5857   -3.3701    3.4154 C   0  0  0  0  0  0  0  0  0  0  0  0
   -0.0938   -3.4555    4.6715 C   0  0  0  0  0  0  0  0  0  0  0  0
   -1.1708   -4.0525    4.4173 O   0  0  0  0  0  0  0  0  0  0  0  0
   -1.3293   -4.4050    3.0900 C   0  0  0  0  0  0  0  0  0  0  0  0
   -0.2228   -3.9754    2.4284 C   0  0  0  0  0  0  0  0  0  0  0  0
   -2.5682   -5.0929    2.7975 C   0  0  0  0  0  0  0  0  0  0  0  0
   -2.7473   -5.4869    1.6264 O   0  0  0  0  0  0  0  0  0  0  0  0
   -3.4942   -5.3152    3.7543 O   0  0  0  0  0  0  0  0  0  0  0  0
   -4.6965   -5.9977    3.6588 C   0  0  0  0  0  0  0  0  0  0  0  0
   -5.3203   -5.8851    5.1133 C   0  0  0  0  0  0  0  0  0  0  0  0
   -4.4052   -6.3963    5.9205 O   0  0  0  0  0  0  0  0  0  0  0  0
   -3.5555   -7.0844    6.5978 C   0  0  0  0  0  0  0  0  0  0  0  0
   -3.4541   -8.3551    6.2890 O   0  0  0  0  0  0  0  0  0  0  0  0
   -2.6843   -6.6138    7.6724 C   0  0  0  0  0  0  0  0  0  0  0  0
   -1.8337   -7.1301    8.5480 C   0  0  0  0  0  0  0  0  0  0  0  0
   -1.2767   -6.2416    9.4027 O   0  0  0  0  0  0  0  0  0  0  0  0
   -1.8141   -5.0490    9.0535 C   0  0  0  0  0  0  0  0  0  0  0  0
   -2.6782   -5.2337    7.9978 C   0  0  0  0  0  0  0  0  0  0  0  0
   -1.5121   -3.7514    9.7182 C   0  0  0  0  0  0  0  0  0  0  0  0
   -0.7731   -3.8095   10.6886 O   0  0  0  0  0  0  0  0  0  0  0  0
   -2.0760   -2.6719    9.2089 O   0  0  0  0  0  0  0  0  0  0  0  0
   -2.1733   -1.3216    9.4375 C   0  0  0  0  0  0  0  0  0  0  0  0
   -2.9130   -0.7199    8.2679 C   0  0  0  0  0  0  0  0  0  0  0  0
   -2.2049   -0.8724    7.0182 O   0  0  0  0  0  0  0  0  0  0  0  0
   -2.9744   -0.5306    5.9248 C   0  0  0  0  0  0  0  0  0  0  0  0
   -4.1731   -0.1655    6.2993 O   0  0  0  0  0  0  0  0  0  0  0  0
   -2.7230   -0.5197    4.5370 C   0  0  0  0  0  0  0  0  0  0  0  0
   -3.7995   -0.4737    3.6116 C   0  0  0  0  0  0  0  0  0  0  0  0
   -3.3848   -0.4751    2.3991 O   0  0  0  0  0  0  0  0  0  0  0  0
   -2.0106   -0.5242    2.3672 C   0  0  0  0  0  0  0  0  0  0  0  0
   -1.6118   -0.5598    3.7037 C   0  0  0  0  0  0  0  0  0  0  0  0
   -1.3846   -0.5483    1.1161 C   0  0  0  0  0  0  0  0  0  0  0  0
   -2.1859   -0.6541    0.0812 O   0  0  0  0  0  0  0  0  0  0  0  0
   -0.0492   -0.4847    0.6819 O   0  0  0  0  0  0  0  0  0  0  0  0
    0.0778   -0.6850   -0.7282 C   0  0  0  0  0  0  0  0  0  0  0  0
    1.3669   -0.6553   -1.3319 C   0  0  0  0  0  0  0  0  0  0  0  0
    2.0864    0.5754   -1.3493 O   0  0  0  0  0  0  0  0  0  0  0  0
    3.3568    0.3501   -2.0446 C   0  0  0  0  0  0  0  0  0  0  0  0
    3.4745   -0.8562   -2.2817 O   0  0  0  0  0  0  0  0  0  0  0  0
    4.2426    1.4045   -2.3518 C   0  0  0  0  0  0  0  0  0  0  0  0
    5.5862    1.1601   -2.7968 C   0  0  0  0  0  0  0  0  0  0  0  0
    6.0679    2.2842   -3.1631 O   0  0  0  0  0  0  0  0  0  0  0  0
    5.1982    3.2980   -3.0342 C   0  0  0  0  0  0  0  0  0  0  0  0
    4.0992    2.7617   -2.5410 C   0  0  0  0  0  0  0  0  0  0  0  0
    5.6283    4.6169   -3.4453 C   0  0  0  0  0  0  0  0  0  0  0  0
    6.8560    4.7755   -3.8538 O   0  0  0  0  0  0  0  0  0  0  0  0
    4.8636    5.6533   -3.4499 O   0  0  0  0  0  0  0  0  0  0  0  0
    4.6597    6.9649   -3.7025 C   0  0  0  0  0  0  0  0  0  0  0  0
    4.8523    7.2612   -5.2225 C   0  0  0  0  0  0  0  0  0  0  0  0
    3.9566    6.3820   -5.8403 O   0  0  0  0  0  0  0  0  0  0  0  0
    2.7102    6.0615   -5.7634 C   0  0  0  0  0  0  0  0  0  0  0  0
    2.0329    6.7957   -4.8382 O   0  0  0  0  0  0  0  0  0  0  0  0
    1.8366    5.1275   -6.3883 C   0  0  0  0  0  0  0  0  0  0  0  0
    2.0135    4.3213   -7.5690 C   0  0  0  0  0  0  0  0  0  0  0  0
    0.9599    3.5200   -7.7031 O   0  0  0  0  0  0  0  0  0  0  0  0
    0.1229    3.7454   -6.6869 C   0  0  0  0  0  0  0  0  0  0  0  0
    0.6232    4.6735   -5.9299 C   0  0  0  0  0  0  0  0  0  0  0  0
   -1.1819    3.0560   -6.4586 C   0  0  0  0  0  0  0  0  0  0  0  0
   -1.7670    2.3270   -7.2416 O   0  0  0  0  0  0  0  0  0  0  0  0
   -1.7351    3.2923   -5.2331 O   0  0  0  0  0  0  0  0  0  0  0  0
   -2.8749    2.9280   -4.5906 C   0  0  0  0  0  0  0  0  0  0  0  0
   -2.6855    3.2792   -3.1353 C   0  0  0  0  0  0  0  0  0  0  0  0
   -2.3694    4.6995   -3.0071 O   0  0  0  0  0  0  0  0  0  0  0  0
   -2.0883    5.0719   -1.6992 C   0  0  0  0  0  0  0  0  0  0  0  0
   -2.1961    4.0541   -0.8926 O   0  0  0  0  0  0  0  0  0  0  0  0
   -1.7253    6.3122   -1.1091 C   0  0  0  0  0  0  0  0  0  0  0  0
   -1.4369    7.5589   -1.5633 C   0  0  0  0  0  0  0  0  0  0  0  0
   -1.2771    8.3977   -0.5322 O   0  0  0  0  0  0  0  0  0  0  0  0
   -1.4456    7.7736    0.5785 C   0  0  0  0  0  0  0  0  0  0  0  0
   -1.7265    6.4440    0.3123 C   0  0  0  0  0  0  0  0  0  0  0  0
   -1.4105    8.2240    1.9925 C   0  0  0  0  0  0  0  0  0  0  0  0
   -1.2752    9.4538    2.2362 O   0  0  0  0  0  0  0  0  0  0  0  0
   -1.5163    7.3679    3.0349 O   0  0  0  0  0  0  0  0  0  0  0  0
   -1.5729    7.5639    4.4050 C   0  0  0  0  0  0  0  0  0  0  0  0
   -1.5441    6.2142    5.0741 C   0  0  0  0  0  0  0  0  0  0  0  0
   -0.4156    5.4984    4.8897 O   0  0  0  0  0  0  0  0  0  0  0  0
    0.2671    4.9956    3.8542 C   0  0  0  0  0  0  0  0  0  0  0  0
    0.0674    5.0240    2.6628 O   0  0  0  0  0  0  0  0  0  0  0  0
    1.5278    4.2294    4.2591 C   0  0  0  0  0  0  0  0  0  0  0  0
    2.0033    4.0955    5.5157 C   0  0  0  0  0  0  0  0  0  0  0  0
    3.1098    3.4355    5.4992 O   0  0  0  0  0  0  0  0  0  0  0  0
    3.4302    3.1004    4.1993 C   0  0  0  0  0  0  0  0  0  0  0  0
    2.4091    3.6081    3.4350 C   0  0  0  0  0  0  0  0  0  0  0  0
    4.6325    2.3861    4.0294 C   0  0  0  0  0  0  0  0  0  0  0  0
    5.3470    2.1790    5.0895 O   0  0  0  0  0  0  0  0  0  0  0  0
    5.2439    1.8340    2.8855 O   0  0  0  0  0  0  0  0  0  0  0  0
    6.5287    1.2327    3.2649 C   0  0  0  0  0  0  0  0  0  0  0  0
    7.3612    0.7776    2.1975 C   0  0  0  0  0  0  0  0  0  0  0  0
    7.0093   -0.2329    1.3361 O   0  0  0  0  0  0  0  0  0  0  0  0
    6.9272   -1.5866    1.6918 C   0  0  0  0  0  0  0  0  0  0  0  0
    7.1377   -1.9557    2.8872 O   0  0  0  0  0  0  0  0  0  0  0  0
    6.6143   -2.6210    0.6949 C   0  0  0  0  0  0  0  0  0  0  0  0
    6.6264   -3.9638    0.7860 C   0  0  0  0  0  0  0  0  0  0  0  0
    6.3654   -4.6048   -0.3069 O   0  0  0  0  0  0  0  0  0  0  0  0
    6.1297   -3.6458   -1.2695 C   0  0  0  0  0  0  0  0  0  0  0  0
    6.2842   -2.4048   -0.6569 C   0  0  0  0  0  0  0  0  0  0  0  0
    5.7966   -3.9257   -2.6792 C   0  0  0  0  0  0  0  0  0  0  0  0
    5.8830   -5.1024   -3.1742 O   0  0  0  0  0  0  0  0  0  0  0  0
    5.3996   -2.9401   -3.4269 O   0  0  0  0  0  0  0  0  0  0  0  0
    5.0146   -2.5584   -4.6355 C   0  0  0  0  0  0  0  0  0  0  0  0
    4.0160   -3.2729   -5.4476 C   0  0  0  0  0  0  0  0  0  0  0  0
    2.7468   -3.4575   -4.9458 O   0  0  0  0  0  0  0  0  0  0  0  0
    1.7271   -3.9120   -5.8530 C   0  0  0  0  0  0  0  0  0  0  0  0
    1.9101   -4.1118   -7.0333 O   0  0  0  0  0  0  0  0  0  0  0  0
    0.4314   -4.0985   -5.1803 C   0  0  0  0  0  0  0  0  0  0  0  0
    0.1145   -4.0959   -3.8800 C   0  0  0  0  0  0  0  0  0  0  0  0
   -1.1384   -4.2033   -3.6010 O   0  0  0  0  0  0  0  0  0  0  0  0
   -1.7820   -4.2863   -4.8270 C   0  0  0  0  0  0  0  0  0  0  0  0
   -0.8283   -4.2180   -5.8058 C   0  0  0  0  0  0  0  0  0  0  0  0
   -3.2088   -4.4224   -4.8299 C   0  0  0  0  0  0  0  0  0  0  0  0
   -4.0155   -4.5108   -3.9483 O   0  0  0  0  0  0  0  0  0  0  0  0
   -3.7623   -4.4591   -6.1550 O   0  0  0  0  0  0  0  0  0  0  0  0
   -5.1138   -4.5618   -6.4289 C   0  0  0  0  0  0  0  0  0  0  0  0
   -5.9287   -3.3415   -6.1449 C   0  0  0  0  0  0  0  0  0  0  0  0
   -6.0734   -2.7974   -4.9364 O   0  0  0  0  0  0  0  0  0  0  0  0
   -6.6877   -3.2034   -3.7715 C   0  0  0  0  0  0  0  0  0  0  0  0
   -7.2564   -4.3767   -3.8772 O   0  0  0  0  0  0  0  0  0  0  0  0
   -6.7180   -2.4399   -2.5854 C   0  0  0  0  0  0  0  0  0  0  0  0
   -7.0898   -2.6877   -1.2860 C   0  0  0  0  0  0  0  0  0  0  0  0
   -7.0078   -1.5629   -0.5820 O   0  0  0  0  0  0  0  0  0  0  0  0
   -6.6065   -0.5565   -1.3026 C   0  0  0  0  0  0  0  0  0  0  0  0
   -6.4068   -1.0482   -2.5730 C   0  0  0  0  0  0  0  0  0  0  0  0
   -6.3903    0.8432   -0.9092 C   0  0  0  0  0  0  0  0  0  0  0  0
   -6.5404    1.2820    0.2543 O   0  0  0  0  0  0  0  0  0  0  0  0
   -6.0035    1.7781   -1.9080 O   0  0  0  0  0  0  0  0  0  0  0  0
    3.7504    0.7530    6.8755 H   0  0  0  0  0  0  0  0  0  0  0  0
    3.1803   -1.8831    6.5846 H   0  0  0  0  0  0  0  0  0  0  0  0
    2.1756   -0.4393    6.0509 H   0  0  0  0  0  0  0  0  0  0  0  0
    3.5928   -0.4110    3.9439 H   0  0  0  0  0  0  0  0  0  0  0  0
    4.4565   -1.8819    4.6558 H   0  0  0  0  0  0  0  0  0  0  0  0
    0.4008   -3.0393    5.4945 H   0  0  0  0  0  0  0  0  0  0  0  0
   -0.0668   -4.0987    1.3864 H   0  0  0  0  0  0  0  0  0  0  0  0
   -4.4961   -7.0780    3.5511 H   0  0  0  0  0  0  0  0  0  0  0  0
   -5.4404   -5.5802    2.9697 H   0  0  0  0  0  0  0  0  0  0  0  0
   -6.3485   -6.3190    5.0135 H   0  0  0  0  0  0  0  0  0  0  0  0
   -5.4593   -4.7765    5.2252 H   0  0  0  0  0  0  0  0  0  0  0  0
   -1.5923   -8.2139    8.5700 H   0  0  0  0  0  0  0  0  0  0  0  0
   -3.2287   -4.4357    7.5381 H   0  0  0  0  0  0  0  0  0  0  0  0
   -1.1722   -0.9166    9.5466 H   0  0  0  0  0  0  0  0  0  0  0  0
   -2.7833   -1.0726   10.3585 H   0  0  0  0  0  0  0  0  0  0  0  0
   -3.8355   -1.3633    8.1127 H   0  0  0  0  0  0  0  0  0  0  0  0
   -3.2537    0.2571    8.4536 H   0  0  0  0  0  0  0  0  0  0  0  0
   -4.8630   -0.4371    3.8715 H   0  0  0  0  0  0  0  0  0  0  0  0
   -0.6152   -0.6081    4.0849 H   0  0  0  0  0  0  0  0  0  0  0  0
   -0.6385    0.0479   -1.2541 H   0  0  0  0  0  0  0  0  0  0  0  0
   -0.4325   -1.6738   -1.0133 H   0  0  0  0  0  0  0  0  0  0  0  0
    1.3897   -1.1052   -2.3729 H   0  0  0  0  0  0  0  0  0  0  0  0
    2.1143   -1.3554   -0.7899 H   0  0  0  0  0  0  0  0  0  0  0  0
    5.9566    0.1487   -2.7623 H   0  0  0  0  0  0  0  0  0  0  0  0
    3.1885    3.3131   -2.2787 H   0  0  0  0  0  0  0  0  0  0  0  0
    5.3864    7.5994   -3.1097 H   0  0  0  0  0  0  0  0  0  0  0  0
    3.6528    7.2838   -3.3796 H   0  0  0  0  0  0  0  0  0  0  0  0
    4.4723    8.3326   -5.2964 H   0  0  0  0  0  0  0  0  0  0  0  0
    5.8715    7.1574   -5.5475 H   0  0  0  0  0  0  0  0  0  0  0  0
    2.9106    4.4935   -8.1149 H   0  0  0  0  0  0  0  0  0  0  0  0
    0.1725    5.0949   -5.0118 H   0  0  0  0  0  0  0  0  0  0  0  0
   -3.8101    3.4171   -4.9519 H   0  0  0  0  0  0  0  0  0  0  0  0
   -3.0540    1.8190   -4.6169 H   0  0  0  0  0  0  0  0  0  0  0  0
   -1.8324    2.7871   -2.6555 H   0  0  0  0  0  0  0  0  0  0  0  0
   -3.6459    3.1444   -2.5782 H   0  0  0  0  0  0  0  0  0  0  0  0
   -1.3457    7.8389   -2.6385 H   0  0  0  0  0  0  0  0  0  0  0  0
   -1.9231    5.6757    1.0439 H   0  0  0  0  0  0  0  0  0  0  0  0
   -2.6201    7.9800    4.6715 H   0  0  0  0  0  0  0  0  0  0  0  0
   -0.7930    8.2027    4.7946 H   0  0  0  0  0  0  0  0  0  0  0  0
   -2.4652    5.6280    4.6663 H   0  0  0  0  0  0  0  0  0  0  0  0
   -1.7165    6.3224    6.1675 H   0  0  0  0  0  0  0  0  0  0  0  0
    1.5237    4.4813    6.3903 H   0  0  0  0  0  0  0  0  0  0  0  0
    2.3739    3.4909    2.3741 H   0  0  0  0  0  0  0  0  0  0  0  0
    7.0498    1.9137    3.9778 H   0  0  0  0  0  0  0  0  0  0  0  0
    6.1807    0.3920    3.9454 H   0  0  0  0  0  0  0  0  0  0  0  0
    8.3891    0.4207    2.6447 H   0  0  0  0  0  0  0  0  0  0  0  0
    7.7358    1.6807    1.5288 H   0  0  0  0  0  0  0  0  0  0  0  0
    6.8444   -4.5063    1.7190 H   0  0  0  0  0  0  0  0  0  0  0  0
    6.2148   -1.4122   -1.0554 H   0  0  0  0  0  0  0  0  0  0  0  0
    5.9155   -2.3931   -5.3426 H   0  0  0  0  0  0  0  0  0  0  0  0
    4.6480   -1.4424   -4.6094 H   0  0  0  0  0  0  0  0  0  0  0  0
    3.8908   -2.6552   -6.4104 H   0  0  0  0  0  0  0  0  0  0  0  0
    4.4488   -4.2527   -5.8535 H   0  0  0  0  0  0  0  0  0  0  0  0
    0.8380   -4.0107   -3.0062 H   0  0  0  0  0  0  0  0  0  0  0  0
   -1.0681   -4.2391   -6.8443 H   0  0  0  0  0  0  0  0  0  0  0  0
   -5.5648   -5.3965   -5.7873 H   0  0  0  0  0  0  0  0  0  0  0  0
   -5.2656   -4.8928   -7.4817 H   0  0  0  0  0  0  0  0  0  0  0  0
   -5.5113   -2.5171   -6.8507 H   0  0  0  0  0  0  0  0  0  0  0  0
   -6.9712   -3.5221   -6.6040 H   0  0  0  0  0  0  0  0  0  0  0  0
   -7.4106   -3.6541   -0.9060 H   0  0  0  0  0  0  0  0  0  0  0  0
   -6.0697   -0.4925   -3.4339 H   0  0  0  0  0  0  0  0  0  0  0  0
   -6.2613    2.7327   -1.8471 H   0  0  0  0  0  0  0  0  0  0  0  0
  1  2  1  0
  2  3  1  0
  3  4  1  0
  4  5  1  0
  5  6  2  0
  5  7  1  0
  7  8  2  0
  8  9  1  0
  9 10  1  0
 10 11  2  0
 10 12  1  0
 12 13  2  0
 12 14  1  0
 14 15  1  0
 15 16  1  0
 16 17  1  0
 17 18  1  0
 18 19  2  0
 18 20  1  0
 20 21  2  0
 21 22  1  0
 22 23  1  0
 23 24  2  0
 23 25  1  0
 25 26  2  0
 25 27  1  0
 27 28  1  0
 28 29  1  0
 29 30  1  0
 30 31  1  0
 31 32  2  0
 31 33  1  0
 33 34  2  0
 34 35  1  0
 35 36  1  0
 36 37  2  0
 36 38  1  0
 38 39  2  0
 38 40  1  0
 40 41  1  0
 41 42  1  0
 42 43  1  0
 43 44  1  0
 44 45  2  0
 44 46  1  0
 46 47  2  0
 47 48  1  0
 48 49  1  0
 49 50  2  0
 49 51  1  0
 51 52  2  0
 51 53  1  0
 53 54  1  0
 54 55  1  0
 55 56  1  0
 56 57  1  0
 57 58  2  0
 57 59  1  0
 59 60  2  0
 60 61  1  0
 61 62  1  0
 62 63  2  0
 62 64  1  0
 64 65  2  0
 64 66  1  0
 66 67  1  0
 67 68  1  0
 68 69  1  0
 69 70  1  0
 70 71  2  0
 70 72  1  0
 72 73  2  0
 73 74  1  0
 74 75  1  0
 75 76  2  0
 75 77  1  0
 77 78  2  0
 77 79  1  0
 79 80  1  0
 80 81  1  0
 81 82  1  0
 82 83  1  0
 83 84  2  0
 83 85  1  0
 85 86  2  0
 86 87  1  0
 87 88  1  0
 88 89  2  0
 88 90  1  0
 90 91  2  0
 90 92  1  0
 92 93  1  0
 93 94  1  0
 94 95  1  0
 95 96  1  0
 96 97  2  0
 96 98  1  0
 98 99  2  0
 99100  1  0
100101  1  0
101102  2  0
101103  1  0
103104  2  0
103105  1  0
105106  1  0
106107  1  0
107108  1  0
108109  1  0
109110  2  0
109111  1  0
111112  2  0
112113  1  0
113114  1  0
114115  2  0
114116  1  0
116117  2  0
116118  1  0
118119  1  0
119120  1  0
120121  1  0
121122  1  0
122123  2  0
122124  1  0
124125  2  0
125126  1  0
126127  1  0
127128  2  0
127129  1  0
129130  2  0
129131  1  0
 11  7  1  0
 24 20  1  0
 37 33  1  0
 50 46  1  0
 63 59  1  0
 76 72  1  0
 89 85  1  0
102 98  1  0
115111  1  0
128124  1  0
  1132  1  0
  2133  1  0
  2134  1  0
  3135  1  0
  3136  1  0
  8137  1  0
 11138  1  0
 15139  1  0
 15140  1  0
 16141  1  0
 16142  1  0
 21143  1  0
 24144  1  0
 28145  1  0
 28146  1  0
 29147  1  0
 29148  1  0
 34149  1  0
 37150  1  0
 41151  1  0
 41152  1  0
 42153  1  0
 42154  1  0
 47155  1  0
 50156  1  0
 54157  1  0
 54158  1  0
 55159  1  0
 55160  1  0
 60161  1  0
 63162  1  0
 67163  1  0
 67164  1  0
 68165  1  0
 68166  1  0
 73167  1  0
 76168  1  0
 80169  1  0
 80170  1  0
 81171  1  0
 81172  1  0
 86173  1  0
 89174  1  0
 93175  1  0
 93176  1  0
 94177  1  0
 94178  1  0
 99179  1  0
102180  1  0
106181  1  0
106182  1  0
107183  1  0
107184  1  0
112185  1  0
115186  1  0
119187  1  0
119188  1  0
120189  1  0
120190  1  0
125191  1  0
128192  1  0
131193  1  0
M  END
$$$$
