
     RDKit          3D

 72 71  0  0  0  0  0  0  0  0999 V2000
   -7.8861   -4.0192   -0.5106 C   0  0  0  0  0  0  0  0  0  0  0  0
   -6.9063   -3.9343    0.6665 C   0  0  0  0  0  0  0  0  0  0  0  0
   -5.9177   -3.0208    0.4053 O   0  0  0  0  0  0  0  0  0  0  0  0
   -4.9938   -2.9025    1.4470 C   0  0  0  0  0  0  0  0  0  0  0  0
   -3.9282   -1.8703    1.0813 C   0  0  0  0  0  0  0  0  0  0  0  0
   -2.9935   -1.7140    2.0718 O   0  0  0  0  0  0  0  0  0  0  0  0
   -1.9954   -0.8023    1.8229 C   0  0  0  0  0  0  0  0  0  0  0  0
   -2.4553    0.6007    1.5875 C   0  0  0  0  0  0  0  0  0  0  0  0
   -1.3795    1.4627    1.3430 O   0  0  0  0  0  0  0  0  0  0  0  0
   -1.8923    2.7378    1.1380 C   0  0  0  0  0  0  0  0  0  0  0  0
   -0.8749    3.7895    0.8636 C   0  0  0  0  0  0  0  0  0  0  0  0
   -0.0978    3.5679   -0.2650 O   0  0  0  0  0  0  0  0  0  0  0  0
    0.8062    4.5881   -0.4397 C   0  0  0  0  0  0  0  0  0  0  0  0
    1.6981    4.4655   -1.6256 C   0  0  0  0  0  0  0  0  0  0  0  0
    2.5013    3.3442   -1.6542 O   0  0  0  0  0  0  0  0  0  0  0  0
    3.2573    3.3884   -2.8053 C   0  0  0  0  0  0  0  0  0  0  0  0
    4.1826    2.2253   -2.9597 C   0  0  0  0  0  0  0  0  0  0  0  0
    3.5250    0.9974   -3.0032 O   0  0  0  0  0  0  0  0  0  0  0  0
    4.5014    0.0300   -3.1497 C   0  0  0  0  0  0  0  0  0  0  0  0
    4.0301   -1.3735   -3.2206 C   0  0  0  0  0  0  0  0  0  0  0  0
    3.3499   -1.8320   -2.1320 O   0  0  0  0  0  0  0  0  0  0  0  0
    2.1971   -1.1965   -1.7777 C   0  0  0  0  0  0  0  0  0  0  0  0
    1.5588   -1.8995   -0.5565 C   0  0  0  0  0  0  0  0  0  0  0  0
    2.4588   -1.8480    0.4744 O   0  0  0  0  0  0  0  0  0  0  0  0
    1.9795   -2.4564    1.6282 C   0  0  0  0  0  0  0  0  0  0  0  0
    2.9619   -2.3981    2.7461 C   0  0  0  0  0  0  0  0  0  0  0  0
    3.3385   -1.1439    3.1519 O   0  0  0  0  0  0  0  0  0  0  0  0
    4.2604   -1.1976    4.2035 C   0  0  0  0  0  0  0  0  0  0  0  0
    4.6402    0.2119    4.6100 C   0  0  0  0  0  0  0  0  0  0  0  0
    5.2118    0.8639    3.5118 O   0  0  0  0  0  0  0  0  0  0  0  0
   -8.5343   -4.9043   -0.4305 H   0  0  0  0  0  0  0  0  0  0  0  0
   -8.5125   -3.1311   -0.6169 H   0  0  0  0  0  0  0  0  0  0  0  0
   -7.3157   -4.1152   -1.4618 H   0  0  0  0  0  0  0  0  0  0  0  0
   -6.5691   -4.9492    0.8901 H   0  0  0  0  0  0  0  0  0  0  0  0
   -7.5513   -3.5920    1.5283 H   0  0  0  0  0  0  0  0  0  0  0  0
   -4.5214   -3.8758    1.5837 H   0  0  0  0  0  0  0  0  0  0  0  0
   -5.5502   -2.5251    2.3277 H   0  0  0  0  0  0  0  0  0  0  0  0
   -3.4099   -2.2787    0.1899 H   0  0  0  0  0  0  0  0  0  0  0  0
   -4.3878   -0.9172    0.7726 H   0  0  0  0  0  0  0  0  0  0  0  0
   -1.3645   -0.7762    2.7512 H   0  0  0  0  0  0  0  0  0  0  0  0
   -1.3071   -1.1700    1.0341 H   0  0  0  0  0  0  0  0  0  0  0  0
   -3.1895    0.7245    0.7738 H   0  0  0  0  0  0  0  0  0  0  0  0
   -2.9231    0.9842    2.5241 H   0  0  0  0  0  0  0  0  0  0  0  0
   -2.7116    2.7314    0.3911 H   0  0  0  0  0  0  0  0  0  0  0  0
   -2.3884    3.0115    2.0993 H   0  0  0  0  0  0  0  0  0  0  0  0
   -0.2542    3.9267    1.7793 H   0  0  0  0  0  0  0  0  0  0  0  0
   -1.4226    4.7369    0.6831 H   0  0  0  0  0  0  0  0  0  0  0  0
    1.4452    4.7646    0.4527 H   0  0  0  0  0  0  0  0  0  0  0  0
    0.2192    5.5267   -0.5715 H   0  0  0  0  0  0  0  0  0  0  0  0
    1.1531    4.4920   -2.5905 H   0  0  0  0  0  0  0  0  0  0  0  0
    2.3498    5.3736   -1.6441 H   0  0  0  0  0  0  0  0  0  0  0  0
    2.6630    3.5785   -3.7112 H   0  0  0  0  0  0  0  0  0  0  0  0
    3.9162    4.2948   -2.7000 H   0  0  0  0  0  0  0  0  0  0  0  0
    4.7699    2.2795   -3.8986 H   0  0  0  0  0  0  0  0  0  0  0  0
    4.9681    2.2376   -2.1515 H   0  0  0  0  0  0  0  0  0  0  0  0
    5.0787    0.2908   -4.0664 H   0  0  0  0  0  0  0  0  0  0  0  0
    5.2625    0.0935   -2.3190 H   0  0  0  0  0  0  0  0  0  0  0  0
    4.9563   -2.0225   -3.3114 H   0  0  0  0  0  0  0  0  0  0  0  0
    3.4626   -1.5744   -4.1672 H   0  0  0  0  0  0  0  0  0  0  0  0
    2.4613   -0.1661   -1.4069 H   0  0  0  0  0  0  0  0  0  0  0  0
    1.4526   -1.0943   -2.5880 H   0  0  0  0  0  0  0  0  0  0  0  0
    0.6368   -1.3000   -0.3611 H   0  0  0  0  0  0  0  0  0  0  0  0
    1.2369   -2.8858   -0.8855 H   0  0  0  0  0  0  0  0  0  0  0  0
    1.7326   -3.4991    1.4301 H   0  0  0  0  0  0  0  0  0  0  0  0
    1.0811   -1.8834    1.9441 H   0  0  0  0  0  0  0  0  0  0  0  0
    3.8219   -3.0687    2.5351 H   0  0  0  0  0  0  0  0  0  0  0  0
    2.4504   -2.8770    3.6317 H   0  0  0  0  0  0  0  0  0  0  0  0
    5.1535   -1.7552    3.8736 H   0  0  0  0  0  0  0  0  0  0  0  0
    3.8055   -1.7153    5.0816 H   0  0  0  0  0  0  0  0  0  0  0  0
    5.3473    0.1089    5.4576 H   0  0  0  0  0  0  0  0  0  0  0  0
    3.7578    0.7686    4.9430 H   0  0  0  0  0  0  0  0  0  0  0  0
    4.5408    1.5198    3.1484 H   0  0  0  0  0  0  0  0  0  0  0  0
  1  2  1  0
  2  3  1  0
  3  4  1  0
  4  5  1  0
  5  6  1  0
  6  7  1  0
  7  8  1  0
  8  9  1  0
  9 10  1  0
 10 11  1  0
 11 12  1  0
 12 13  1  0
 13 14  1  0
 14 15  1  0
 15 16  1  0
 16 17  1  0
 17 18  1  0
 18 19  1  0
 19 20  1  0
 20 21  1  0
 21 22  1  0
 22 23  1  0
 23 24  1  0
 24 25  1  0
 25 26  1  0
 26 27  1  0
 27 28  1  0
 28 29  1  0
 29 30  1  0
  1 31  1  0
  1 32  1  0
  1 33  1  0
  2 34  1  0
  2 35  1  0
  4 36  1  0
  4 37  1  0
  5 38  1  0
  5 39  1  0
  7 40  1  0
  7 41  1  0
  8 42  1  0
  8 43  1  0
 10 44  1  0
 10 45  1  0
 11 46  1  0
 11 47  1  0
 13 48  1  0
 13 49  1  0
 14 50  1  0
 14 51  1  0
 16 52  1  0
 16 53  1  0
 17 54  1  0
 17 55  1  0
 19 56  1  0
 19 57  1  0
 20 58  1  0
 20 59  1  0
 22 60  1  0
 22 61  1  0
 23 62  1  0
 23 63  1  0
 25 64  1  0
 25 65  1  0
 26 66  1  0
 26 67  1  0
 28 68  1  0
 28 69  1  0
 29 70  1  0
 29 71  1  0
 30 72  1  0
M  END
$$$$
