
     RDKit          3D

153152  0  0  0  0  0  0  0  0999 V2000
    2.4384    6.8144    5.0704 O   0  0  0  0  0  0  0  0  0  0  0  0
    1.2410    7.2044    4.4269 C   0  0  0  0  0  0  0  0  0  0  0  0
    1.3655    8.6152    3.9070 C   0  0  0  0  0  0  0  0  0  0  0  0
    0.9987    6.2864    3.2607 C   0  0  0  0  0  0  0  0  0  0  0  0
   -0.2755    6.7140    2.6012 C   0  0  0  0  0  0  0  0  0  0  0  0
   -0.9337    7.6485    3.0927 O   0  0  0  0  0  0  0  0  0  0  0  0
   -0.6323    6.0268    1.4702 O   0  0  0  0  0  0  0  0  0  0  0  0
   -1.7546    6.2461    0.7016 C   0  0  0  0  0  0  0  0  0  0  0  0
   -1.4568    6.7225   -0.6937 C   0  0  0  0  0  0  0  0  0  0  0  0
   -0.6202    5.7714   -1.5033 C   0  0  0  0  0  0  0  0  0  0  0  0
   -2.6438    5.0189    0.7138 C   0  0  0  0  0  0  0  0  0  0  0  0
   -3.8620    5.2109   -0.1335 C   0  0  0  0  0  0  0  0  0  0  0  0
   -4.7269    3.9990   -0.1115 C   0  0  0  0  0  0  0  0  0  0  0  0
   -5.7266    4.0451    0.6666 O   0  0  0  0  0  0  0  0  0  0  0  0
   -4.4391    2.9010   -0.9070 O   0  0  0  0  0  0  0  0  0  0  0  0
   -5.2045    1.7531   -0.9662 C   0  0  0  0  0  0  0  0  0  0  0  0
   -5.8102    1.5296   -2.3573 C   0  0  0  0  0  0  0  0  0  0  0  0
   -4.4980    0.4689   -0.6130 C   0  0  0  0  0  0  0  0  0  0  0  0
   -3.9822    0.4583    0.7558 C   0  0  0  0  0  0  0  0  0  0  0  0
   -4.0987    1.5295    1.4289 O   0  0  0  0  0  0  0  0  0  0  0  0
   -3.3783   -0.6581    1.3676 O   0  0  0  0  0  0  0  0  0  0  0  0
   -2.9393   -0.6326    2.6713 C   0  0  0  0  0  0  0  0  0  0  0  0
   -3.9286   -1.4010    3.5936 C   0  0  0  0  0  0  0  0  0  0  0  0
   -5.2644   -0.7373    3.5156 C   0  0  0  0  0  0  0  0  0  0  0  0
   -1.6041   -0.9811    3.1112 C   0  0  0  0  0  0  0  0  0  0  0  0
   -0.4074   -0.2216    2.5793 C   0  0  0  0  0  0  0  0  0  0  0  0
    0.7846   -0.6782    3.3707 C   0  0  0  0  0  0  0  0  0  0  0  0
    0.5504   -1.6816    4.1312 O   0  0  0  0  0  0  0  0  0  0  0  0
    2.0241   -0.1111    3.3464 O   0  0  0  0  0  0  0  0  0  0  0  0
    3.0007   -0.6014    4.1945 C   0  0  0  0  0  0  0  0  0  0  0  0
    2.8742    0.4468    5.4135 C   0  0  0  0  0  0  0  0  0  0  0  0
    4.4093   -0.6092    3.9316 C   0  0  0  0  0  0  0  0  0  0  0  0
    5.1464   -1.2791    2.9092 C   0  0  0  0  0  0  0  0  0  0  0  0
    6.3225   -0.8104    2.6361 O   0  0  0  0  0  0  0  0  0  0  0  0
    4.8114   -2.4027    2.1336 O   0  0  0  0  0  0  0  0  0  0  0  0
    5.8017   -2.8602    1.2211 C   0  0  0  0  0  0  0  0  0  0  0  0
    6.4689   -4.1194    1.9238 C   0  0  0  0  0  0  0  0  0  0  0  0
    7.5329   -4.6106    0.9808 C   0  0  0  0  0  0  0  0  0  0  0  0
    5.4115   -3.3460   -0.0919 C   0  0  0  0  0  0  0  0  0  0  0  0
    4.6737   -2.4789   -1.0289 C   0  0  0  0  0  0  0  0  0  0  0  0
    5.2724   -1.1817   -1.3531 C   0  0  0  0  0  0  0  0  0  0  0  0
    5.8856   -0.5751   -0.4148 O   0  0  0  0  0  0  0  0  0  0  0  0
    5.1887   -0.5991   -2.6181 O   0  0  0  0  0  0  0  0  0  0  0  0
    5.7153    0.7002   -2.8742 C   0  0  0  0  0  0  0  0  0  0  0  0
    6.8903    0.6226   -3.8351 C   0  0  0  0  0  0  0  0  0  0  0  0
    4.6250    1.4561   -3.6536 C   0  0  0  0  0  0  0  0  0  0  0  0
    3.4387    1.3282   -2.7024 C   0  0  0  0  0  0  0  0  0  0  0  0
    3.6265    1.1952   -1.4680 O   0  0  0  0  0  0  0  0  0  0  0  0
    2.2076    1.3532   -3.3149 O   0  0  0  0  0  0  0  0  0  0  0  0
    0.9908    1.1899   -2.6046 C   0  0  0  0  0  0  0  0  0  0  0  0
   -0.0022    2.2590   -2.6756 C   0  0  0  0  0  0  0  0  0  0  0  0
   -1.2453    1.8523   -1.8448 C   0  0  0  0  0  0  0  0  0  0  0  0
    0.5160   -0.2289   -2.8719 C   0  0  0  0  0  0  0  0  0  0  0  0
    0.2682   -0.5677   -4.2904 C   0  0  0  0  0  0  0  0  0  0  0  0
   -0.1390   -1.9694   -4.5184 C   0  0  0  0  0  0  0  0  0  0  0  0
   -0.3602   -2.3601   -5.7076 O   0  0  0  0  0  0  0  0  0  0  0  0
   -0.3028   -2.9222   -3.5294 O   0  0  0  0  0  0  0  0  0  0  0  0
   -0.6876   -4.2543   -3.8339 C   0  0  0  0  0  0  0  0  0  0  0  0
   -2.0935   -4.4579   -3.3047 C   0  0  0  0  0  0  0  0  0  0  0  0
    0.2565   -5.3008   -3.3015 C   0  0  0  0  0  0  0  0  0  0  0  0
    0.3519   -5.2372   -1.8106 C   0  0  0  0  0  0  0  0  0  0  0  0
    1.2327   -4.5174   -1.2305 O   0  0  0  0  0  0  0  0  0  0  0  0
   -0.5610   -5.9933   -1.1002 O   0  0  0  0  0  0  0  0  0  0  0  0
   -0.6695   -6.0934    0.2901 C   0  0  0  0  0  0  0  0  0  0  0  0
   -2.0075   -5.4846    0.6984 C   0  0  0  0  0  0  0  0  0  0  0  0
   -3.1724   -6.1813    0.0742 C   0  0  0  0  0  0  0  0  0  0  0  0
   -0.5844   -7.5005    0.7890 C   0  0  0  0  0  0  0  0  0  0  0  0
   -0.7130   -7.5247    2.2840 C   0  0  0  0  0  0  0  0  0  0  0  0
    0.3553   -6.7464    2.9246 C   0  0  0  0  0  0  0  0  0  0  0  0
    0.3573   -5.5178    3.1112 O   0  0  0  0  0  0  0  0  0  0  0  0
    1.4925   -7.4406    3.3778 O   0  0  0  0  0  0  0  0  0  0  0  0
    2.4085    5.8278    5.1963 H   0  0  0  0  0  0  0  0  0  0  0  0
    0.4726    7.1133    5.2147 H   0  0  0  0  0  0  0  0  0  0  0  0
    2.2601    9.0704    4.4265 H   0  0  0  0  0  0  0  0  0  0  0  0
    0.4651    9.2225    4.0836 H   0  0  0  0  0  0  0  0  0  0  0  0
    1.6619    8.5689    2.8488 H   0  0  0  0  0  0  0  0  0  0  0  0
    1.7779    6.3651    2.4833 H   0  0  0  0  0  0  0  0  0  0  0  0
    0.9396    5.2306    3.5538 H   0  0  0  0  0  0  0  0  0  0  0  0
   -2.3516    7.0737    1.1754 H   0  0  0  0  0  0  0  0  0  0  0  0
   -2.3926    7.0091   -1.2227 H   0  0  0  0  0  0  0  0  0  0  0  0
   -0.8889    7.6663   -0.5844 H   0  0  0  0  0  0  0  0  0  0  0  0
   -0.0725    6.3241   -2.2999 H   0  0  0  0  0  0  0  0  0  0  0  0
   -1.3514    5.1040   -2.0537 H   0  0  0  0  0  0  0  0  0  0  0  0
    0.1157    5.2224   -0.9191 H   0  0  0  0  0  0  0  0  0  0  0  0
   -2.1238    4.0788    0.5319 H   0  0  0  0  0  0  0  0  0  0  0  0
   -3.0177    4.9599    1.7791 H   0  0  0  0  0  0  0  0  0  0  0  0
   -4.4292    6.1217    0.1312 H   0  0  0  0  0  0  0  0  0  0  0  0
   -3.5727    5.3481   -1.2024 H   0  0  0  0  0  0  0  0  0  0  0  0
   -6.0964    1.8755   -0.2858 H   0  0  0  0  0  0  0  0  0  0  0  0
   -6.7260    0.9163   -2.2681 H   0  0  0  0  0  0  0  0  0  0  0  0
   -5.1065    0.9332   -2.9818 H   0  0  0  0  0  0  0  0  0  0  0  0
   -6.0868    2.4935   -2.8493 H   0  0  0  0  0  0  0  0  0  0  0  0
   -3.7810    0.2496   -1.4020 H   0  0  0  0  0  0  0  0  0  0  0  0
   -5.2889   -0.3300   -0.7064 H   0  0  0  0  0  0  0  0  0  0  0  0
   -3.1352    0.4448    3.0268 H   0  0  0  0  0  0  0  0  0  0  0  0
   -3.5241   -1.2731    4.6116 H   0  0  0  0  0  0  0  0  0  0  0  0
   -3.9324   -2.4674    3.3567 H   0  0  0  0  0  0  0  0  0  0  0  0
   -5.8605   -1.0240    2.6394 H   0  0  0  0  0  0  0  0  0  0  0  0
   -5.9170   -1.0045    4.4006 H   0  0  0  0  0  0  0  0  0  0  0  0
   -5.1375    0.3761    3.6364 H   0  0  0  0  0  0  0  0  0  0  0  0
   -1.5642   -0.7979    4.2359 H   0  0  0  0  0  0  0  0  0  0  0  0
   -1.3844   -2.0989    3.0676 H   0  0  0  0  0  0  0  0  0  0  0  0
   -0.6140    0.8519    2.7125 H   0  0  0  0  0  0  0  0  0  0  0  0
   -0.2991   -0.4914    1.5101 H   0  0  0  0  0  0  0  0  0  0  0  0
    2.6216   -1.5553    4.6861 H   0  0  0  0  0  0  0  0  0  0  0  0
    1.9090    0.1987    5.8511 H   0  0  0  0  0  0  0  0  0  0  0  0
    2.8725    1.4418    4.9860 H   0  0  0  0  0  0  0  0  0  0  0  0
    3.6849    0.2587    6.1081 H   0  0  0  0  0  0  0  0  0  0  0  0
    4.9014   -0.8557    4.9755 H   0  0  0  0  0  0  0  0  0  0  0  0
    4.7618    0.5075    3.8964 H   0  0  0  0  0  0  0  0  0  0  0  0
    6.6463   -2.1712    1.2113 H   0  0  0  0  0  0  0  0  0  0  0  0
    5.6967   -4.9064    2.0091 H   0  0  0  0  0  0  0  0  0  0  0  0
    6.8892   -3.7838    2.8716 H   0  0  0  0  0  0  0  0  0  0  0  0
    7.1547   -5.2880    0.1998 H   0  0  0  0  0  0  0  0  0  0  0  0
    8.3039   -5.2100    1.5292 H   0  0  0  0  0  0  0  0  0  0  0  0
    8.0409   -3.7559    0.4515 H   0  0  0  0  0  0  0  0  0  0  0  0
    6.3699   -3.6520   -0.6422 H   0  0  0  0  0  0  0  0  0  0  0  0
    4.9008   -4.3668    0.0104 H   0  0  0  0  0  0  0  0  0  0  0  0
    4.4657   -3.0094   -2.0057 H   0  0  0  0  0  0  0  0  0  0  0  0
    3.6274   -2.3595   -0.6027 H   0  0  0  0  0  0  0  0  0  0  0  0
    6.0442    1.1711   -1.9953 H   0  0  0  0  0  0  0  0  0  0  0  0
    6.6330    0.2881   -4.8398 H   0  0  0  0  0  0  0  0  0  0  0  0
    7.7689    0.0823   -3.3780 H   0  0  0  0  0  0  0  0  0  0  0  0
    7.2448    1.6816   -3.9396 H   0  0  0  0  0  0  0  0  0  0  0  0
    4.4083    1.0187   -4.6198 H   0  0  0  0  0  0  0  0  0  0  0  0
    4.9765    2.4942   -3.7240 H   0  0  0  0  0  0  0  0  0  0  0  0
    1.2977    1.1166   -1.5061 H   0  0  0  0  0  0  0  0  0  0  0  0
   -0.3039    2.6616   -3.6401 H   0  0  0  0  0  0  0  0  0  0  0  0
    0.3983    3.1351   -2.0777 H   0  0  0  0  0  0  0  0  0  0  0  0
   -0.8396    1.2043   -1.0378 H   0  0  0  0  0  0  0  0  0  0  0  0
   -1.7381    2.7035   -1.3824 H   0  0  0  0  0  0  0  0  0  0  0  0
   -1.9018    1.2107   -2.4694 H   0  0  0  0  0  0  0  0  0  0  0  0
    1.3199   -0.8969   -2.4411 H   0  0  0  0  0  0  0  0  0  0  0  0
   -0.3963   -0.4449   -2.2772 H   0  0  0  0  0  0  0  0  0  0  0  0
    1.2605   -0.4771   -4.8192 H   0  0  0  0  0  0  0  0  0  0  0  0
   -0.3971    0.1518   -4.8186 H   0  0  0  0  0  0  0  0  0  0  0  0
   -0.7785   -4.3308   -4.9346 H   0  0  0  0  0  0  0  0  0  0  0  0
   -2.2255   -4.1141   -2.2844 H   0  0  0  0  0  0  0  0  0  0  0  0
   -2.3723   -5.5371   -3.3484 H   0  0  0  0  0  0  0  0  0  0  0  0
   -2.7746   -3.8757   -3.9631 H   0  0  0  0  0  0  0  0  0  0  0  0
   -0.1515   -6.2963   -3.5672 H   0  0  0  0  0  0  0  0  0  0  0  0
    1.2616   -5.2397   -3.7605 H   0  0  0  0  0  0  0  0  0  0  0  0
    0.1010   -5.4832    0.7978 H   0  0  0  0  0  0  0  0  0  0  0  0
   -2.1225   -5.4367    1.7917 H   0  0  0  0  0  0  0  0  0  0  0  0
   -1.9658   -4.4039    0.3757 H   0  0  0  0  0  0  0  0  0  0  0  0
   -3.8521   -6.6825    0.8171 H   0  0  0  0  0  0  0  0  0  0  0  0
   -3.8320   -5.4355   -0.4413 H   0  0  0  0  0  0  0  0  0  0  0  0
   -2.8977   -6.9121   -0.7130 H   0  0  0  0  0  0  0  0  0  0  0  0
   -1.3135   -8.1771    0.3045 H   0  0  0  0  0  0  0  0  0  0  0  0
    0.4280   -7.9435    0.5494 H   0  0  0  0  0  0  0  0  0  0  0  0
   -0.6080   -8.5960    2.6063 H   0  0  0  0  0  0  0  0  0  0  0  0
   -1.7296   -7.2393    2.6301 H   0  0  0  0  0  0  0  0  0  0  0  0
    2.4039   -6.9711    3.2992 H   0  0  0  0  0  0  0  0  0  0  0  0
  1  2  1  0
  2  3  1  0
  2  4  1  0
  4  5  1  0
  5  6  2  0
  5  7  1  0
  7  8  1  0
  8  9  1  0
  9 10  1  0
  8 11  1  0
 11 12  1  0
 12 13  1  0
 13 14  2  0
 13 15  1  0
 15 16  1  0
 16 17  1  0
 16 18  1  0
 18 19  1  0
 19 20  2  0
 19 21  1  0
 21 22  1  0
 22 23  1  0
 23 24  1  0
 22 25  1  0
 25 26  1  0
 26 27  1  0
 27 28  2  0
 27 29  1  0
 29 30  1  0
 30 31  1  0
 30 32  1  0
 32 33  1  0
 33 34  2  0
 33 35  1  0
 35 36  1  0
 36 37  1  0
 37 38  1  0
 36 39  1  0
 39 40  1  0
 40 41  1  0
 41 42  2  0
 41 43  1  0
 43 44  1  0
 44 45  1  0
 44 46  1  0
 46 47  1  0
 47 48  2  0
 47 49  1  0
 49 50  1  0
 50 51  1  0
 51 52  1  0
 50 53  1  0
 53 54  1  0
 54 55  1  0
 55 56  2  0
 55 57  1  0
 57 58  1  0
 58 59  1  0
 58 60  1  0
 60 61  1  0
 61 62  2  0
 61 63  1  0
 63 64  1  0
 64 65  1  0
 65 66  1  0
 64 67  1  0
 67 68  1  0
 68 69  1  0
 69 70  2  0
 69 71  1  0
  1 72  1  0
  2 73  1  0
  3 74  1  0
  3 75  1  0
  3 76  1  0
  4 77  1  0
  4 78  1  0
  8 79  1  0
  9 80  1  0
  9 81  1  0
 10 82  1  0
 10 83  1  0
 10 84  1  0
 11 85  1  0
 11 86  1  0
 12 87  1  0
 12 88  1  0
 16 89  1  0
 17 90  1  0
 17 91  1  0
 17 92  1  0
 18 93  1  0
 18 94  1  0
 22 95  1  0
 23 96  1  0
 23 97  1  0
 24 98  1  0
 24 99  1  0
 24100  1  0
 25101  1  0
 25102  1  0
 26103  1  0
 26104  1  0
 30105  1  0
 31106  1  0
 31107  1  0
 31108  1  0
 32109  1  0
 32110  1  0
 36111  1  0
 37112  1  0
 37113  1  0
 38114  1  0
 38115  1  0
 38116  1  0
 39117  1  0
 39118  1  0
 40119  1  0
 40120  1  0
 44121  1  0
 45122  1  0
 45123  1  0
 45124  1  0
 46125  1  0
 46126  1  0
 50127  1  0
 51128  1  0
 51129  1  0
 52130  1  0
 52131  1  0
 52132  1  0
 53133  1  0
 53134  1  0
 54135  1  0
 54136  1  0
 58137  1  0
 59138  1  0
 59139  1  0
 59140  1  0
 60141  1  0
 60142  1  0
 64143  1  0
 65144  1  0
 65145  1  0
 66146  1  0
 66147  1  0
 66148  1  0
 67149  1  0
 67150  1  0
 68151  1  0
 68152  1  0
 71153  1  0
M  END
$$$$
