
     RDKit          3D

138137  0  0  0  0  0  0  0  0999 V2000
   -1.4405   -5.6562    7.8387 O   0  0  0  0  0  0  0  0  0  0  0  0
   -0.4895   -4.7596    7.3141 C   0  0  2  0  0  0  0  0  0  0  0  0
    0.8331   -5.4372    7.2782 C   0  0  0  0  0  0  0  0  0  0  0  0
   -0.4675   -3.5263    8.1619 C   0  0  0  0  0  0  0  0  0  0  0  0
    0.5470   -2.5568    7.6251 C   0  0  0  0  0  0  0  0  0  0  0  0
    1.6817   -3.0438    7.3221 O   0  0  0  0  0  0  0  0  0  0  0  0
    0.2164   -1.2308    7.4853 O   0  0  0  0  0  0  0  0  0  0  0  0
    1.0506   -0.2282    6.9943 C   0  0  2  0  0  0  0  0  0  0  0  0
    1.3218    0.8481    8.0353 C   0  0  0  0  0  0  0  0  0  0  0  0
    2.2320    1.9163    7.4400 C   0  0  0  0  0  0  0  0  0  0  0  0
    0.4892    0.4127    5.7519 C   0  0  0  0  0  0  0  0  0  0  0  0
    0.3085   -0.5998    4.6880 C   0  0  0  0  0  0  0  0  0  0  0  0
    0.5177   -1.8230    4.8518 O   0  0  0  0  0  0  0  0  0  0  0  0
   -0.1175   -0.2215    3.4122 O   0  0  0  0  0  0  0  0  0  0  0  0
   -0.2709   -1.2285    2.4508 C   0  0  2  0  0  0  0  0  0  0  0  0
    0.6923   -0.9822    1.3016 C   0  0  0  0  0  0  0  0  0  0  0  0
   -1.6703   -1.2048    1.8357 C   0  0  0  0  0  0  0  0  0  0  0  0
   -1.8000   -2.2959    0.8182 C   0  0  0  0  0  0  0  0  0  0  0  0
   -2.2595   -3.4054    1.1789 O   0  0  0  0  0  0  0  0  0  0  0  0
   -1.4393   -2.1447   -0.4974 O   0  0  0  0  0  0  0  0  0  0  0  0
   -1.5955   -3.2336   -1.3984 C   0  0  2  0  0  0  0  0  0  0  0  0
   -0.2561   -3.7104   -1.8962 C   0  0  0  0  0  0  0  0  0  0  0  0
   -0.3171   -4.8584   -2.8405 C   0  0  0  0  0  0  0  0  0  0  0  0
   -2.5301   -2.8237   -2.4883 C   0  0  0  0  0  0  0  0  0  0  0  0
   -3.8600   -2.4408   -2.0009 C   0  0  0  0  0  0  0  0  0  0  0  0
   -4.7672   -3.3143   -1.8856 O   0  0  0  0  0  0  0  0  0  0  0  0
   -4.2091   -1.1291   -1.6433 O   0  0  0  0  0  0  0  0  0  0  0  0
   -5.5131   -0.8520   -1.1943 C   0  0  2  0  0  0  0  0  0  0  0  0
   -6.2302    0.0771   -2.1619 C   0  0  0  0  0  0  0  0  0  0  0  0
   -5.5698   -0.3364    0.2000 C   0  0  0  0  0  0  0  0  0  0  0  0
   -4.8542    0.9133    0.4544 C   0  0  0  0  0  0  0  0  0  0  0  0
   -4.8162    1.3622    1.6454 O   0  0  0  0  0  0  0  0  0  0  0  0
   -4.2459    1.5620   -0.5983 O   0  0  0  0  0  0  0  0  0  0  0  0
   -3.5161    2.8048   -0.4275 C   0  0  2  0  0  0  0  0  0  0  0  0
   -4.2566    3.8710   -1.2009 C   0  0  0  0  0  0  0  0  0  0  0  0
   -5.6831    4.0114   -0.6513 C   0  0  0  0  0  0  0  0  0  0  0  0
   -2.1235    2.5958   -0.9031 C   0  0  0  0  0  0  0  0  0  0  0  0
   -1.2299    3.8035   -0.7742 C   0  0  0  0  0  0  0  0  0  0  0  0
   -1.6458    4.9107   -0.3638 O   0  0  0  0  0  0  0  0  0  0  0  0
    0.0648    3.6170   -1.1309 O   0  0  0  0  0  0  0  0  0  0  0  0
    1.1588    4.4627   -1.1494 C   0  0  2  0  0  0  0  0  0  0  0  0
    1.7310    4.5915   -2.5173 C   0  0  0  0  0  0  0  0  0  0  0  0
    2.2026    4.0696   -0.1094 C   0  0  0  0  0  0  0  0  0  0  0  0
    2.6927    2.7055   -0.2739 C   0  0  0  0  0  0  0  0  0  0  0  0
    2.2810    1.8390    0.5728 O   0  0  0  0  0  0  0  0  0  0  0  0
    3.5534    2.2376   -1.2428 O   0  0  0  0  0  0  0  0  0  0  0  0
    3.9755    0.8977   -1.3115 C   0  0  2  0  0  0  0  0  0  0  0  0
    5.4548    0.7317   -1.1302 C   0  0  0  0  0  0  0  0  0  0  0  0
    5.8960    1.2674    0.2257 C   0  0  0  0  0  0  0  0  0  0  0  0
    3.5083    0.1168   -2.4890 C   0  0  0  0  0  0  0  0  0  0  0  0
    3.9010    0.6108   -3.8062 C   0  0  0  0  0  0  0  0  0  0  0  0
    3.8000   -0.1397   -4.8173 O   0  0  0  0  0  0  0  0  0  0  0  0
    4.3981    1.8878   -4.0523 O   0  0  0  0  0  0  0  0  0  0  0  0
    4.7853    2.3551   -5.2977 C   0  0  2  0  0  0  0  0  0  0  0  0
    6.2776    2.6363   -5.3796 C   0  0  0  0  0  0  0  0  0  0  0  0
    4.0678    3.6019   -5.6727 C   0  0  0  0  0  0  0  0  0  0  0  0
    2.6205    3.4408   -5.7872 C   0  0  0  0  0  0  0  0  0  0  0  0
    1.9562    4.4875   -6.0779 O   0  0  0  0  0  0  0  0  0  0  0  0
    1.8768    2.2881   -5.6248 O   0  0  0  0  0  0  0  0  0  0  0  0
    0.4492    2.3188   -5.8052 C   0  0  2  0  0  0  0  0  0  0  0  0
   -0.2188    1.9070   -4.5386 C   0  0  0  0  0  0  0  0  0  0  0  0
    0.1520    0.4945   -4.1145 C   0  0  0  0  0  0  0  0  0  0  0  0
    0.0559    1.4600   -6.9688 C   0  0  0  0  0  0  0  0  0  0  0  0
   -1.3942    1.5139   -7.1837 C   0  0  0  0  0  0  0  0  0  0  0  0
   -2.2309    2.1996   -6.5936 O   0  0  0  0  0  0  0  0  0  0  0  0
   -1.8983    0.6670   -8.2027 O   0  0  0  0  0  0  0  0  0  0  0  0
   -2.0934   -5.9183    7.1136 H   0  0  0  0  0  0  0  0  0  0  0  0
   -0.8442   -4.4479    6.2954 H   0  0  0  0  0  0  0  0  0  0  0  0
    0.6905   -6.5616    7.2273 H   0  0  0  0  0  0  0  0  0  0  0  0
    1.3592   -5.1105    6.3419 H   0  0  0  0  0  0  0  0  0  0  0  0
    1.4017   -5.1824    8.1897 H   0  0  0  0  0  0  0  0  0  0  0  0
   -1.4549   -3.0332    8.1167 H   0  0  0  0  0  0  0  0  0  0  0  0
   -0.2187   -3.7605    9.2291 H   0  0  0  0  0  0  0  0  0  0  0  0
    2.0307   -0.6730    6.7346 H   0  0  0  0  0  0  0  0  0  0  0  0
    0.3464    1.3422    8.2316 H   0  0  0  0  0  0  0  0  0  0  0  0
    1.7227    0.4154    8.9472 H   0  0  0  0  0  0  0  0  0  0  0  0
    1.5917    2.5914    6.8123 H   0  0  0  0  0  0  0  0  0  0  0  0
    2.9263    1.4246    6.7510 H   0  0  0  0  0  0  0  0  0  0  0  0
    2.6969    2.4626    8.2688 H   0  0  0  0  0  0  0  0  0  0  0  0
   -0.5528    0.7977    5.9682 H   0  0  0  0  0  0  0  0  0  0  0  0
    1.1201    1.2249    5.3620 H   0  0  0  0  0  0  0  0  0  0  0  0
   -0.0416   -2.2277    2.8620 H   0  0  0  0  0  0  0  0  0  0  0  0
    0.3097   -0.1432    0.7007 H   0  0  0  0  0  0  0  0  0  0  0  0
    0.6436   -1.8762    0.6453 H   0  0  0  0  0  0  0  0  0  0  0  0
    1.7103   -0.7539    1.6341 H   0  0  0  0  0  0  0  0  0  0  0  0
   -2.3840   -1.3219    2.6529 H   0  0  0  0  0  0  0  0  0  0  0  0
   -1.7604   -0.2434    1.2668 H   0  0  0  0  0  0  0  0  0  0  0  0
   -2.0344   -4.0693   -0.8314 H   0  0  0  0  0  0  0  0  0  0  0  0
    0.3519   -2.9195   -2.3769 H   0  0  0  0  0  0  0  0  0  0  0  0
    0.3312   -4.0513   -1.0064 H   0  0  0  0  0  0  0  0  0  0  0  0
   -0.4438   -5.8424   -2.3102 H   0  0  0  0  0  0  0  0  0  0  0  0
   -1.0731   -4.8282   -3.6184 H   0  0  0  0  0  0  0  0  0  0  0  0
    0.6778   -4.9829   -3.3613 H   0  0  0  0  0  0  0  0  0  0  0  0
   -2.1057   -1.9779   -3.0695 H   0  0  0  0  0  0  0  0  0  0  0  0
   -2.6810   -3.7035   -3.1681 H   0  0  0  0  0  0  0  0  0  0  0  0
   -6.1142   -1.8039   -1.1983 H   0  0  0  0  0  0  0  0  0  0  0  0
   -7.1347    0.4688   -1.6922 H   0  0  0  0  0  0  0  0  0  0  0  0
   -5.5007    0.8723   -2.4729 H   0  0  0  0  0  0  0  0  0  0  0  0
   -6.4619   -0.5371   -3.0567 H   0  0  0  0  0  0  0  0  0  0  0  0
   -5.2060   -1.1235    0.8928 H   0  0  0  0  0  0  0  0  0  0  0  0
   -6.6629   -0.2113    0.4565 H   0  0  0  0  0  0  0  0  0  0  0  0
   -3.5785    3.0695    0.6469 H   0  0  0  0  0  0  0  0  0  0  0  0
   -4.4176    3.5774   -2.2794 H   0  0  0  0  0  0  0  0  0  0  0  0
   -3.8126    4.8759   -1.1374 H   0  0  0  0  0  0  0  0  0  0  0  0
   -6.3065    3.1648   -0.9479 H   0  0  0  0  0  0  0  0  0  0  0  0
   -5.6593    4.1613    0.4496 H   0  0  0  0  0  0  0  0  0  0  0  0
   -6.1236    4.9318   -1.0866 H   0  0  0  0  0  0  0  0  0  0  0  0
   -2.1669    2.4313   -2.0235 H   0  0  0  0  0  0  0  0  0  0  0  0
   -1.6345    1.7158   -0.4699 H   0  0  0  0  0  0  0  0  0  0  0  0
    0.8647    5.5139   -0.8184 H   0  0  0  0  0  0  0  0  0  0  0  0
    2.1489    3.6694   -2.9271 H   0  0  0  0  0  0  0  0  0  0  0  0
    2.4806    5.4354   -2.4970 H   0  0  0  0  0  0  0  0  0  0  0  0
    0.9227    4.9823   -3.1793 H   0  0  0  0  0  0  0  0  0  0  0  0
    3.0613    4.7690   -0.2394 H   0  0  0  0  0  0  0  0  0  0  0  0
    1.7736    4.2853    0.8759 H   0  0  0  0  0  0  0  0  0  0  0  0
    3.4841    0.3990   -0.4200 H   0  0  0  0  0  0  0  0  0  0  0  0
    5.9498    1.3697   -1.9048 H   0  0  0  0  0  0  0  0  0  0  0  0
    5.8001   -0.2851   -1.3229 H   0  0  0  0  0  0  0  0  0  0  0  0
    5.1806    0.9594    1.0175 H   0  0  0  0  0  0  0  0  0  0  0  0
    5.9349    2.3583    0.2562 H   0  0  0  0  0  0  0  0  0  0  0  0
    6.9225    0.8996    0.4235 H   0  0  0  0  0  0  0  0  0  0  0  0
    3.8762   -0.9427   -2.3108 H   0  0  0  0  0  0  0  0  0  0  0  0
    2.3982    0.0075   -2.3676 H   0  0  0  0  0  0  0  0  0  0  0  0
    4.6145    1.5264   -6.0602 H   0  0  0  0  0  0  0  0  0  0  0  0
    6.6552    3.2362   -4.5485 H   0  0  0  0  0  0  0  0  0  0  0  0
    6.8479    1.6710   -5.5334 H   0  0  0  0  0  0  0  0  0  0  0  0
    6.4607    3.2147   -6.3186 H   0  0  0  0  0  0  0  0  0  0  0  0
    4.5312    3.9736   -6.6280 H   0  0  0  0  0  0  0  0  0  0  0  0
    4.3422    4.3633   -4.8764 H   0  0  0  0  0  0  0  0  0  0  0  0
    0.1854    3.3563   -6.0537 H   0  0  0  0  0  0  0  0  0  0  0  0
   -1.3134    1.9553   -4.5876 H   0  0  0  0  0  0  0  0  0  0  0  0
    0.0462    2.6134   -3.6908 H   0  0  0  0  0  0  0  0  0  0  0  0
    1.1214    0.1588   -4.4835 H   0  0  0  0  0  0  0  0  0  0  0  0
   -0.6476   -0.2156   -4.4514 H   0  0  0  0  0  0  0  0  0  0  0  0
    0.1372    0.4326   -3.0090 H   0  0  0  0  0  0  0  0  0  0  0  0
    0.5428    1.8291   -7.8962 H   0  0  0  0  0  0  0  0  0  0  0  0
    0.2998    0.3759   -6.7907 H   0  0  0  0  0  0  0  0  0  0  0  0
   -2.8102    0.8648   -8.5855 H   0  0  0  0  0  0  0  0  0  0  0  0
  1  2  1  0
  2  3  1  0
  2  4  1  0
  4  5  1  0
  5  6  2  0
  5  7  1  0
  7  8  1  0
  8  9  1  0
  9 10  1  0
  8 11  1  0
 11 12  1  0
 12 13  2  0
 12 14  1  0
 14 15  1  0
 15 16  1  0
 15 17  1  0
 17 18  1  0
 18 19  2  0
 18 20  1  0
 20 21  1  0
 21 22  1  0
 22 23  1  0
 21 24  1  0
 24 25  1  0
 25 26  2  0
 25 27  1  0
 27 28  1  0
 28 29  1  0
 28 30  1  0
 30 31  1  0
 31 32  2  0
 31 33  1  0
 33 34  1  0
 34 35  1  0
 35 36  1  0
 34 37  1  0
 37 38  1  0
 38 39  2  0
 38 40  1  0
 40 41  1  0
 41 42  1  0
 41 43  1  0
 43 44  1  0
 44 45  2  0
 44 46  1  0
 46 47  1  0
 47 48  1  0
 48 49  1  0
 47 50  1  0
 50 51  1  0
 51 52  2  0
 51 53  1  0
 53 54  1  0
 54 55  1  0
 54 56  1  0
 56 57  1  0
 57 58  2  0
 57 59  1  0
 59 60  1  0
 60 61  1  0
 61 62  1  0
 60 63  1  0
 63 64  1  0
 64 65  2  0
 64 66  1  0
  1 67  1  0
  2 68  1  6
  3 69  1  0
  3 70  1  0
  3 71  1  0
  4 72  1  0
  4 73  1  0
  8 74  1  6
  9 75  1  0
  9 76  1  0
 10 77  1  0
 10 78  1  0
 10 79  1  0
 11 80  1  0
 11 81  1  0
 15 82  1  1
 16 83  1  0
 16 84  1  0
 16 85  1  0
 17 86  1  0
 17 87  1  0
 21 88  1  1
 22 89  1  0
 22 90  1  0
 23 91  1  0
 23 92  1  0
 23 93  1  0
 24 94  1  0
 24 95  1  0
 28 96  1  1
 29 97  1  0
 29 98  1  0
 29 99  1  0
 30100  1  0
 30101  1  0
 34102  1  1
 35103  1  0
 35104  1  0
 36105  1  0
 36106  1  0
 36107  1  0
 37108  1  0
 37109  1  0
 41110  1  1
 42111  1  0
 42112  1  0
 42113  1  0
 43114  1  0
 43115  1  0
 47116  1  1
 48117  1  0
 48118  1  0
 49119  1  0
 49120  1  0
 49121  1  0
 50122  1  0
 50123  1  0
 54124  1  6
 55125  1  0
 55126  1  0
 55127  1  0
 56128  1  0
 56129  1  0
 60130  1  6
 61131  1  0
 61132  1  0
 62133  1  0
 62134  1  0
 62135  1  0
 63136  1  0
 63137  1  0
 66138  1  0
M  END
$$$$
