
     RDKit          3D

243242  0  0  0  0  0  0  0  0999 V2000
   -6.8916    4.3300    0.9604 O   0  0  0  0  0  0  0  0  0  0  0  0
   -6.6613    4.4259    2.3090 C   0  0  2  0  0  0  0  0  0  0  0  0
   -5.3096    4.9680    2.6559 C   0  0  0  0  0  0  0  0  0  0  0  0
   -5.0495    6.3597    2.1330 C   0  0  0  0  0  0  0  0  0  0  0  0
   -3.7023    6.8797    2.5682 C   0  0  0  0  0  0  0  0  0  0  0  0
   -2.5362    6.0571    2.1187 C   0  0  0  0  0  0  0  0  0  0  0  0
   -2.3827    5.9206    0.6400 C   0  0  0  0  0  0  0  0  0  0  0  0
   -7.0346    3.2276    3.1279 C   0  0  0  0  0  0  0  0  0  0  0  0
   -6.3089    1.9884    2.6611 C   0  0  0  0  0  0  0  0  0  0  0  0
   -5.8145    1.9115    1.5000 O   0  0  0  0  0  0  0  0  0  0  0  0
   -6.2295    0.9730    3.5890 O   0  0  0  0  0  0  0  0  0  0  0  0
   -5.5208   -0.2665    3.1133 C   0  0  2  0  0  0  0  0  0  0  0  0
   -6.3847   -1.3745    3.5263 C   0  0  0  0  0  0  0  0  0  0  0  0
   -6.1137   -2.7964    3.2715 C   0  0  0  0  0  0  0  0  0  0  0  0
   -5.9992   -3.2569    1.8614 C   0  0  0  0  0  0  0  0  0  0  0  0
   -5.7738   -4.7444    1.7383 C   0  0  0  0  0  0  0  0  0  0  0  0
   -4.5627   -5.2671    2.4194 C   0  0  0  0  0  0  0  0  0  0  0  0
   -4.2070   -0.0747    3.8352 C   0  0  0  0  0  0  0  0  0  0  0  0
   -3.1459   -1.0484    3.5845 C   0  0  0  0  0  0  0  0  0  0  0  0
   -3.1795   -2.0526    2.8581 O   0  0  0  0  0  0  0  0  0  0  0  0
   -1.9410   -0.8036    4.2532 O   0  0  0  0  0  0  0  0  0  0  0  0
   -0.7726   -1.5844    4.1790 C   0  0  2  0  0  0  0  0  0  0  0  0
   -0.1899   -1.7652    5.5449 C   0  0  0  0  0  0  0  0  0  0  0  0
   -0.9899   -2.4103    6.5995 C   0  0  0  0  0  0  0  0  0  0  0  0
   -2.2421   -1.7412    7.0316 C   0  0  0  0  0  0  0  0  0  0  0  0
   -2.9457   -2.5103    8.1553 C   0  0  0  0  0  0  0  0  0  0  0  0
   -4.1879   -1.6745    8.4613 C   0  0  0  0  0  0  0  0  0  0  0  0
    0.2072   -0.6458    3.4132 C   0  0  0  0  0  0  0  0  0  0  0  0
    1.5395   -1.2422    3.2239 C   0  0  0  0  0  0  0  0  0  0  0  0
    1.8539   -2.4313    3.4423 O   0  0  0  0  0  0  0  0  0  0  0  0
    2.5369   -0.3612    2.7619 O   0  0  0  0  0  0  0  0  0  0  0  0
    3.8624   -0.6432    2.5343 C   0  0  2  0  0  0  0  0  0  0  0  0
    4.8175    0.2214    3.3149 C   0  0  0  0  0  0  0  0  0  0  0  0
    4.7923    0.2223    4.7781 C   0  0  0  0  0  0  0  0  0  0  0  0
    3.5508    0.6896    5.4743 C   0  0  0  0  0  0  0  0  0  0  0  0
    3.1555    2.0960    5.0960 C   0  0  0  0  0  0  0  0  0  0  0  0
    4.1910    3.1266    5.4225 C   0  0  0  0  0  0  0  0  0  0  0  0
    4.3519   -0.4864    1.1097 C   0  0  0  0  0  0  0  0  0  0  0  0
    3.7568   -1.3035    0.0787 C   0  0  0  0  0  0  0  0  0  0  0  0
    2.7018   -1.0010   -0.5763 O   0  0  0  0  0  0  0  0  0  0  0  0
    4.3530   -2.5140   -0.2519 O   0  0  0  0  0  0  0  0  0  0  0  0
    3.8718   -3.4021   -1.2714 C   0  0  2  0  0  0  0  0  0  0  0  0
    3.5400   -4.7270   -0.6864 C   0  0  0  0  0  0  0  0  0  0  0  0
    2.9485   -5.8080   -1.4729 C   0  0  0  0  0  0  0  0  0  0  0  0
    3.5952   -6.3600   -2.6750 C   0  0  0  0  0  0  0  0  0  0  0  0
    2.7825   -7.5774   -3.2103 C   0  0  0  0  0  0  0  0  0  0  0  0
    1.3992   -7.0752   -3.5490 C   0  0  0  0  0  0  0  0  0  0  0  0
    5.1008   -3.5498   -2.1626 C   0  0  0  0  0  0  0  0  0  0  0  0
    5.5704   -2.2656   -2.7389 C   0  0  0  0  0  0  0  0  0  0  0  0
    6.2421   -2.3640   -3.8246 O   0  0  0  0  0  0  0  0  0  0  0  0
    5.3608   -1.0192   -2.2321 O   0  0  0  0  0  0  0  0  0  0  0  0
    5.8837    0.1280   -2.9199 C   0  0  2  0  0  0  0  0  0  0  0  0
    7.0513    0.6978   -2.1061 C   0  0  0  0  0  0  0  0  0  0  0  0
    7.6700    1.9003   -2.7464 C   0  0  0  0  0  0  0  0  0  0  0  0
    8.8493    2.4547   -1.9311 C   0  0  0  0  0  0  0  0  0  0  0  0
    8.4089    2.8636   -0.5480 C   0  0  0  0  0  0  0  0  0  0  0  0
    9.6295    3.4051    0.2051 C   0  0  0  0  0  0  0  0  0  0  0  0
    4.8477    1.1561   -3.1949 C   0  0  0  0  0  0  0  0  0  0  0  0
    3.7357    0.6804   -4.0360 C   0  0  0  0  0  0  0  0  0  0  0  0
    3.7021   -0.4771   -4.5615 O   0  0  0  0  0  0  0  0  0  0  0  0
    2.6811    1.5913   -4.2348 O   0  0  0  0  0  0  0  0  0  0  0  0
    1.5396    1.3129   -5.0016 C   0  0  2  0  0  0  0  0  0  0  0  0
    1.4315    2.3044   -6.1133 C   0  0  0  0  0  0  0  0  0  0  0  0
    1.3131    3.7291   -5.5672 C   0  0  0  0  0  0  0  0  0  0  0  0
    1.1997    4.7064   -6.7182 C   0  0  0  0  0  0  0  0  0  0  0  0
    1.0829    6.1049   -6.1429 C   0  0  0  0  0  0  0  0  0  0  0  0
    0.9663    7.1170   -7.2576 C   0  0  0  0  0  0  0  0  0  0  0  0
    0.2944    1.2540   -4.1453 C   0  0  0  0  0  0  0  0  0  0  0  0
   -0.9436    0.9591   -4.9096 C   0  0  0  0  0  0  0  0  0  0  0  0
   -1.2277   -0.2047   -5.2955 O   0  0  0  0  0  0  0  0  0  0  0  0
   -1.7802    2.0283   -5.1815 O   0  0  0  0  0  0  0  0  0  0  0  0
   -2.9920    1.9984   -5.8745 C   0  0  2  0  0  0  0  0  0  0  0  0
   -2.9290    2.7927   -7.1642 C   0  0  0  0  0  0  0  0  0  0  0  0
   -4.2181    2.7667   -7.8926 C   0  0  0  0  0  0  0  0  0  0  0  0
   -4.7318    1.4410   -8.3250 C   0  0  0  0  0  0  0  0  0  0  0  0
   -3.8305    0.7049   -9.2595 C   0  0  0  0  0  0  0  0  0  0  0  0
   -4.5144   -0.6105   -9.5958 C   0  0  0  0  0  0  0  0  0  0  0  0
   -4.1541    2.4428   -5.0106 C   0  0  0  0  0  0  0  0  0  0  0  0
   -4.2096    1.5125   -3.8572 C   0  0  0  0  0  0  0  0  0  0  0  0
   -5.3508    1.0559   -3.4956 O   0  0  0  0  0  0  0  0  0  0  0  0
   -3.0645    1.1167   -3.1473 O   0  0  0  0  0  0  0  0  0  0  0  0
   -3.2334    0.2100   -2.0199 C   0  0  2  0  0  0  0  0  0  0  0  0
   -2.8494    0.9477   -0.7778 C   0  0  0  0  0  0  0  0  0  0  0  0
   -1.4423    1.4375   -0.7384 C   0  0  0  0  0  0  0  0  0  0  0  0
   -1.1074    2.1992    0.5224 C   0  0  0  0  0  0  0  0  0  0  0  0
    0.3380    2.6645    0.5266 C   0  0  0  0  0  0  0  0  0  0  0  0
    0.6930    3.5666   -0.6029 C   0  0  0  0  0  0  0  0  0  0  0  0
   -2.4813   -1.0165   -2.3250 C   0  0  0  0  0  0  0  0  0  0  0  0
   -2.5674   -2.0693   -1.2750 C   0  0  0  0  0  0  0  0  0  0  0  0
   -3.2741   -1.8766   -0.2881 O   0  0  0  0  0  0  0  0  0  0  0  0
   -1.8520   -3.2865   -1.3983 O   0  0  0  0  0  0  0  0  0  0  0  0
   -1.9808   -4.2802   -0.3768 C   0  0  2  0  0  0  0  0  0  0  0  0
   -0.6667   -4.5254    0.3066 C   0  0  0  0  0  0  0  0  0  0  0  0
   -0.8252   -5.5645    1.3769 C   0  0  0  0  0  0  0  0  0  0  0  0
    0.5388   -5.7440    2.0423 C   0  0  0  0  0  0  0  0  0  0  0  0
    0.5074   -6.7806    3.1441 C   0  0  0  0  0  0  0  0  0  0  0  0
   -0.4833   -6.3777    4.2140 C   0  0  0  0  0  0  0  0  0  0  0  0
   -2.4660   -5.5176   -1.0350 C   0  0  0  0  0  0  0  0  0  0  0  0
   -3.7774   -5.3507   -1.7317 C   0  0  0  0  0  0  0  0  0  0  0  0
   -4.4163   -4.2851   -1.7853 O   0  0  0  0  0  0  0  0  0  0  0  0
   -4.2721   -6.5171   -2.3520 O   0  0  0  0  0  0  0  0  0  0  0  0
   -6.1785    4.7164    0.3881 H   0  0  0  0  0  0  0  0  0  0  0  0
   -7.3833    5.2457    2.7008 H   0  0  0  0  0  0  0  0  0  0  0  0
   -5.1184    4.9394    3.7637 H   0  0  0  0  0  0  0  0  0  0  0  0
   -4.5386    4.3009    2.2065 H   0  0  0  0  0  0  0  0  0  0  0  0
   -5.1106    6.4224    1.0381 H   0  0  0  0  0  0  0  0  0  0  0  0
   -5.7985    7.0798    2.5249 H   0  0  0  0  0  0  0  0  0  0  0  0
   -3.5369    7.9071    2.1839 H   0  0  0  0  0  0  0  0  0  0  0  0
   -3.6244    6.9535    3.6776 H   0  0  0  0  0  0  0  0  0  0  0  0
   -1.6113    6.5884    2.4972 H   0  0  0  0  0  0  0  0  0  0  0  0
   -2.5224    5.0387    2.5690 H   0  0  0  0  0  0  0  0  0  0  0  0
   -3.1292    5.2400    0.2063 H   0  0  0  0  0  0  0  0  0  0  0  0
   -1.3781    5.4465    0.4534 H   0  0  0  0  0  0  0  0  0  0  0  0
   -2.3267    6.9013    0.1165 H   0  0  0  0  0  0  0  0  0  0  0  0
   -8.1211    2.9791    3.0381 H   0  0  0  0  0  0  0  0  0  0  0  0
   -6.7021    3.3958    4.1696 H   0  0  0  0  0  0  0  0  0  0  0  0
   -5.3692   -0.1805    2.0391 H   0  0  0  0  0  0  0  0  0  0  0  0
   -6.6298   -1.3007    4.6560 H   0  0  0  0  0  0  0  0  0  0  0  0
   -7.4374   -1.1873    3.0704 H   0  0  0  0  0  0  0  0  0  0  0  0
   -7.0532   -3.3489    3.6629 H   0  0  0  0  0  0  0  0  0  0  0  0
   -5.3270   -3.2212    3.9388 H   0  0  0  0  0  0  0  0  0  0  0  0
   -6.9902   -3.0846    1.3219 H   0  0  0  0  0  0  0  0  0  0  0  0
   -5.2812   -2.6759    1.2723 H   0  0  0  0  0  0  0  0  0  0  0  0
   -6.6529   -5.3155    2.1279 H   0  0  0  0  0  0  0  0  0  0  0  0
   -5.7301   -5.0099    0.6610 H   0  0  0  0  0  0  0  0  0  0  0  0
   -4.0693   -4.5972    3.1295 H   0  0  0  0  0  0  0  0  0  0  0  0
   -4.7785   -6.2762    2.9015 H   0  0  0  0  0  0  0  0  0  0  0  0
   -3.8032   -5.5405    1.6356 H   0  0  0  0  0  0  0  0  0  0  0  0
   -3.8503    0.9842    3.7396 H   0  0  0  0  0  0  0  0  0  0  0  0
   -4.4828   -0.1303    4.9437 H   0  0  0  0  0  0  0  0  0  0  0  0
   -0.8791   -2.5008    3.5825 H   0  0  0  0  0  0  0  0  0  0  0  0
    0.7528   -2.3996    5.4430 H   0  0  0  0  0  0  0  0  0  0  0  0
    0.2615   -0.7825    5.9143 H   0  0  0  0  0  0  0  0  0  0  0  0
   -1.1438   -3.4767    6.3058 H   0  0  0  0  0  0  0  0  0  0  0  0
   -0.3277   -2.4634    7.5221 H   0  0  0  0  0  0  0  0  0  0  0  0
   -2.0436   -0.7346    7.4836 H   0  0  0  0  0  0  0  0  0  0  0  0
   -2.9683   -1.7348    6.2114 H   0  0  0  0  0  0  0  0  0  0  0  0
   -2.3236   -2.6102    9.0432 H   0  0  0  0  0  0  0  0  0  0  0  0
   -3.3069   -3.4426    7.6967 H   0  0  0  0  0  0  0  0  0  0  0  0
   -3.9311   -0.5751    8.4543 H   0  0  0  0  0  0  0  0  0  0  0  0
   -4.8769   -1.8186    7.6030 H   0  0  0  0  0  0  0  0  0  0  0  0
   -4.6814   -1.9754    9.3920 H   0  0  0  0  0  0  0  0  0  0  0  0
    0.3058    0.2934    3.9948 H   0  0  0  0  0  0  0  0  0  0  0  0
   -0.2347   -0.3789    2.4365 H   0  0  0  0  0  0  0  0  0  0  0  0
    4.0473   -1.7178    2.8310 H   0  0  0  0  0  0  0  0  0  0  0  0
    5.8560    0.1251    2.8900 H   0  0  0  0  0  0  0  0  0  0  0  0
    4.5450    1.2850    2.9902 H   0  0  0  0  0  0  0  0  0  0  0  0
    5.5950    0.9662    5.1088 H   0  0  0  0  0  0  0  0  0  0  0  0
    5.1655   -0.7289    5.2381 H   0  0  0  0  0  0  0  0  0  0  0  0
    3.8205    0.7421    6.5758 H   0  0  0  0  0  0  0  0  0  0  0  0
    2.7277    0.0207    5.3013 H   0  0  0  0  0  0  0  0  0  0  0  0
    2.8799    2.1739    4.0216 H   0  0  0  0  0  0  0  0  0  0  0  0
    2.2302    2.3432    5.6536 H   0  0  0  0  0  0  0  0  0  0  0  0
    3.7424    4.1233    5.1941 H   0  0  0  0  0  0  0  0  0  0  0  0
    5.0642    2.9839    4.7596 H   0  0  0  0  0  0  0  0  0  0  0  0
    4.4740    3.0665    6.4950 H   0  0  0  0  0  0  0  0  0  0  0  0
    4.3282    0.5957    0.8553 H   0  0  0  0  0  0  0  0  0  0  0  0
    5.4546   -0.7233    1.1709 H   0  0  0  0  0  0  0  0  0  0  0  0
    3.0392   -3.0452   -1.8415 H   0  0  0  0  0  0  0  0  0  0  0  0
    2.8660   -4.6039    0.2328 H   0  0  0  0  0  0  0  0  0  0  0  0
    4.4703   -5.1777   -0.1811 H   0  0  0  0  0  0  0  0  0  0  0  0
    2.6770   -6.6391   -0.7528 H   0  0  0  0  0  0  0  0  0  0  0  0
    1.9020   -5.4496   -1.7977 H   0  0  0  0  0  0  0  0  0  0  0  0
    4.6202   -6.6477   -2.6599 H   0  0  0  0  0  0  0  0  0  0  0  0
    3.4587   -5.5677   -3.4953 H   0  0  0  0  0  0  0  0  0  0  0  0
    2.7815   -8.3883   -2.4842 H   0  0  0  0  0  0  0  0  0  0  0  0
    3.2463   -7.9407   -4.1446 H   0  0  0  0  0  0  0  0  0  0  0  0
    0.8248   -7.0446   -2.6098 H   0  0  0  0  0  0  0  0  0  0  0  0
    1.5147   -6.0953   -4.0563 H   0  0  0  0  0  0  0  0  0  0  0  0
    0.8932   -7.8110   -4.2427 H   0  0  0  0  0  0  0  0  0  0  0  0
    5.9791   -3.8743   -1.5071 H   0  0  0  0  0  0  0  0  0  0  0  0
    5.0597   -4.3106   -2.9250 H   0  0  0  0  0  0  0  0  0  0  0  0
    6.3591   -0.2546   -3.8438 H   0  0  0  0  0  0  0  0  0  0  0  0
    6.6813    1.0033   -1.1023 H   0  0  0  0  0  0  0  0  0  0  0  0
    7.8171   -0.1013   -2.0405 H   0  0  0  0  0  0  0  0  0  0  0  0
    6.9590    2.7775   -2.7925 H   0  0  0  0  0  0  0  0  0  0  0  0
    7.9776    1.7181   -3.7951 H   0  0  0  0  0  0  0  0  0  0  0  0
    9.2602    3.3249   -2.4779 H   0  0  0  0  0  0  0  0  0  0  0  0
    9.6323    1.6788   -1.8103 H   0  0  0  0  0  0  0  0  0  0  0  0
    7.6605    3.6816   -0.5446 H   0  0  0  0  0  0  0  0  0  0  0  0
    8.0521    2.0206    0.0496 H   0  0  0  0  0  0  0  0  0  0  0  0
   10.3113    3.9567   -0.4955 H   0  0  0  0  0  0  0  0  0  0  0  0
   10.2310    2.5720    0.6185 H   0  0  0  0  0  0  0  0  0  0  0  0
    9.3214    4.0419    1.0605 H   0  0  0  0  0  0  0  0  0  0  0  0
    5.3391    2.0114   -3.7174 H   0  0  0  0  0  0  0  0  0  0  0  0
    4.4803    1.5646   -2.2205 H   0  0  0  0  0  0  0  0  0  0  0  0
    1.6498    0.3007   -5.4321 H   0  0  0  0  0  0  0  0  0  0  0  0
    0.6498    2.0733   -6.8504 H   0  0  0  0  0  0  0  0  0  0  0  0
    2.4059    2.2899   -6.6707 H   0  0  0  0  0  0  0  0  0  0  0  0
    0.3702    3.8362   -4.9723 H   0  0  0  0  0  0  0  0  0  0  0  0
    2.1757    3.9406   -4.9247 H   0  0  0  0  0  0  0  0  0  0  0  0
    0.3147    4.4645   -7.3408 H   0  0  0  0  0  0  0  0  0  0  0  0
    2.0846    4.6007   -7.3583 H   0  0  0  0  0  0  0  0  0  0  0  0
    2.0039    6.3127   -5.5795 H   0  0  0  0  0  0  0  0  0  0  0  0
    0.1702    6.1455   -5.5318 H   0  0  0  0  0  0  0  0  0  0  0  0
    0.5091    6.7117   -8.1793 H   0  0  0  0  0  0  0  0  0  0  0  0
    0.3328    7.9759   -6.9136 H   0  0  0  0  0  0  0  0  0  0  0  0
    1.9541    7.5520   -7.5244 H   0  0  0  0  0  0  0  0  0  0  0  0
    0.3961    0.5022   -3.3422 H   0  0  0  0  0  0  0  0  0  0  0  0
    0.2379    2.2333   -3.6296 H   0  0  0  0  0  0  0  0  0  0  0  0
   -3.1878    0.9524   -6.1761 H   0  0  0  0  0  0  0  0  0  0  0  0
   -2.6204    3.8337   -7.0096 H   0  0  0  0  0  0  0  0  0  0  0  0
   -2.1396    2.2891   -7.7782 H   0  0  0  0  0  0  0  0  0  0  0  0
   -4.0582    3.3678   -8.8380 H   0  0  0  0  0  0  0  0  0  0  0  0
   -4.9693    3.3638   -7.3279 H   0  0  0  0  0  0  0  0  0  0  0  0
   -4.9961    0.7618   -7.4973 H   0  0  0  0  0  0  0  0  0  0  0  0
   -5.7040    1.6249   -8.8584 H   0  0  0  0  0  0  0  0  0  0  0  0
   -3.5554    1.2805  -10.1640 H   0  0  0  0  0  0  0  0  0  0  0  0
   -2.8885    0.4459   -8.7302 H   0  0  0  0  0  0  0  0  0  0  0  0
   -5.1659   -0.9552   -8.7737 H   0  0  0  0  0  0  0  0  0  0  0  0
   -3.8208   -1.4146   -9.8561 H   0  0  0  0  0  0  0  0  0  0  0  0
   -5.2187   -0.3736  -10.4375 H   0  0  0  0  0  0  0  0  0  0  0  0
   -4.0494    3.5011   -4.6935 H   0  0  0  0  0  0  0  0  0  0  0  0
   -5.0889    2.2864   -5.6067 H   0  0  0  0  0  0  0  0  0  0  0  0
   -4.3100   -0.0057   -1.9855 H   0  0  0  0  0  0  0  0  0  0  0  0
   -3.0513    0.3753    0.1433 H   0  0  0  0  0  0  0  0  0  0  0  0
   -3.4956    1.8493   -0.7123 H   0  0  0  0  0  0  0  0  0  0  0  0
   -1.1145    2.0458   -1.5877 H   0  0  0  0  0  0  0  0  0  0  0  0
   -0.7287    0.5631   -0.7265 H   0  0  0  0  0  0  0  0  0  0  0  0
   -1.2314    1.5228    1.3891 H   0  0  0  0  0  0  0  0  0  0  0  0
   -1.8004    3.0422    0.7030 H   0  0  0  0  0  0  0  0  0  0  0  0
    1.0155    1.7742    0.4675 H   0  0  0  0  0  0  0  0  0  0  0  0
    0.5958    3.1537    1.4867 H   0  0  0  0  0  0  0  0  0  0  0  0
    1.4287    3.1066   -1.3175 H   0  0  0  0  0  0  0  0  0  0  0  0
    1.2312    4.4495   -0.2008 H   0  0  0  0  0  0  0  0  0  0  0  0
   -0.1941    3.9842   -1.1293 H   0  0  0  0  0  0  0  0  0  0  0  0
   -1.4176   -0.8440   -2.6262 H   0  0  0  0  0  0  0  0  0  0  0  0
   -2.9510   -1.4732   -3.2237 H   0  0  0  0  0  0  0  0  0  0  0  0
   -2.7206   -3.8781    0.3363 H   0  0  0  0  0  0  0  0  0  0  0  0
   -0.2507   -3.6275    0.8039 H   0  0  0  0  0  0  0  0  0  0  0  0
    0.0246   -4.9495   -0.4444 H   0  0  0  0  0  0  0  0  0  0  0  0
   -1.4677   -5.1306    2.1804 H   0  0  0  0  0  0  0  0  0  0  0  0
   -1.2282   -6.5266    1.0504 H   0  0  0  0  0  0  0  0  0  0  0  0
    0.7975   -4.7851    2.5004 H   0  0  0  0  0  0  0  0  0  0  0  0
    1.3050   -6.0471    1.3316 H   0  0  0  0  0  0  0  0  0  0  0  0
    0.4260   -7.8117    2.8059 H   0  0  0  0  0  0  0  0  0  0  0  0
    1.5172   -6.7129    3.6465 H   0  0  0  0  0  0  0  0  0  0  0  0
   -0.6059   -5.2754    4.2084 H   0  0  0  0  0  0  0  0  0  0  0  0
   -0.1329   -6.6655    5.2249 H   0  0  0  0  0  0  0  0  0  0  0  0
   -1.4695   -6.8665    4.0056 H   0  0  0  0  0  0  0  0  0  0  0  0
   -2.5853   -6.3648   -0.3238 H   0  0  0  0  0  0  0  0  0  0  0  0
   -1.7086   -5.7808   -1.8215 H   0  0  0  0  0  0  0  0  0  0  0  0
   -4.9568   -6.4549   -3.0755 H   0  0  0  0  0  0  0  0  0  0  0  0
  1  2  1  0
  2  3  1  0
  3  4  1  0
  4  5  1  0
  5  6  1  0
  6  7  1  0
  2  8  1  0
  8  9  1  0
  9 10  2  0
  9 11  1  0
 11 12  1  0
 12 13  1  0
 13 14  1  0
 14 15  1  0
 15 16  1  0
 16 17  1  0
 12 18  1  0
 18 19  1  0
 19 20  2  0
 19 21  1  0
 21 22  1  0
 22 23  1  0
 23 24  1  0
 24 25  1  0
 25 26  1  0
 26 27  1  0
 22 28  1  0
 28 29  1  0
 29 30  2  0
 29 31  1  0
 31 32  1  0
 32 33  1  0
 33 34  1  0
 34 35  1  0
 35 36  1  0
 36 37  1  0
 32 38  1  0
 38 39  1  0
 39 40  2  0
 39 41  1  0
 41 42  1  0
 42 43  1  0
 43 44  1  0
 44 45  1  0
 45 46  1  0
 46 47  1  0
 42 48  1  0
 48 49  1  0
 49 50  2  0
 49 51  1  0
 51 52  1  0
 52 53  1  0
 53 54  1  0
 54 55  1  0
 55 56  1  0
 56 57  1  0
 52 58  1  0
 58 59  1  0
 59 60  2  0
 59 61  1  0
 61 62  1  0
 62 63  1  0
 63 64  1  0
 64 65  1  0
 65 66  1  0
 66 67  1  0
 62 68  1  0
 68 69  1  0
 69 70  2  0
 69 71  1  0
 71 72  1  0
 72 73  1  0
 73 74  1  0
 74 75  1  0
 75 76  1  0
 76 77  1  0
 72 78  1  0
 78 79  1  0
 79 80  2  0
 79 81  1  0
 81 82  1  0
 82 83  1  0
 83 84  1  0
 84 85  1  0
 85 86  1  0
 86 87  1  0
 82 88  1  0
 88 89  1  0
 89 90  2  0
 89 91  1  0
 91 92  1  0
 92 93  1  0
 93 94  1  0
 94 95  1  0
 95 96  1  0
 96 97  1  0
 92 98  1  0
 98 99  1  0
 99100  2  0
 99101  1  0
  1102  1  0
  2103  1  1
  3104  1  0
  3105  1  0
  4106  1  0
  4107  1  0
  5108  1  0
  5109  1  0
  6110  1  0
  6111  1  0
  7112  1  0
  7113  1  0
  7114  1  0
  8115  1  0
  8116  1  0
 12117  1  6
 13118  1  0
 13119  1  0
 14120  1  0
 14121  1  0
 15122  1  0
 15123  1  0
 16124  1  0
 16125  1  0
 17126  1  0
 17127  1  0
 17128  1  0
 18129  1  0
 18130  1  0
 22131  1  6
 23132  1  0
 23133  1  0
 24134  1  0
 24135  1  0
 25136  1  0
 25137  1  0
 26138  1  0
 26139  1  0
 27140  1  0
 27141  1  0
 27142  1  0
 28143  1  0
 28144  1  0
 32145  1  1
 33146  1  0
 33147  1  0
 34148  1  0
 34149  1  0
 35150  1  0
 35151  1  0
 36152  1  0
 36153  1  0
 37154  1  0
 37155  1  0
 37156  1  0
 38157  1  0
 38158  1  0
 42159  1  6
 43160  1  0
 43161  1  0
 44162  1  0
 44163  1  0
 45164  1  0
 45165  1  0
 46166  1  0
 46167  1  0
 47168  1  0
 47169  1  0
 47170  1  0
 48171  1  0
 48172  1  0
 52173  1  6
 53174  1  0
 53175  1  0
 54176  1  0
 54177  1  0
 55178  1  0
 55179  1  0
 56180  1  0
 56181  1  0
 57182  1  0
 57183  1  0
 57184  1  0
 58185  1  0
 58186  1  0
 62187  1  6
 63188  1  0
 63189  1  0
 64190  1  0
 64191  1  0
 65192  1  0
 65193  1  0
 66194  1  0
 66195  1  0
 67196  1  0
 67197  1  0
 67198  1  0
 68199  1  0
 68200  1  0
 72201  1  6
 73202  1  0
 73203  1  0
 74204  1  0
 74205  1  0
 75206  1  0
 75207  1  0
 76208  1  0
 76209  1  0
 77210  1  0
 77211  1  0
 77212  1  0
 78213  1  0
 78214  1  0
 82215  1  1
 83216  1  0
 83217  1  0
 84218  1  0
 84219  1  0
 85220  1  0
 85221  1  0
 86222  1  0
 86223  1  0
 87224  1  0
 87225  1  0
 87226  1  0
 88227  1  0
 88228  1  0
 92229  1  1
 93230  1  0
 93231  1  0
 94232  1  0
 94233  1  0
 95234  1  0
 95235  1  0
 96236  1  0
 96237  1  0
 97238  1  0
 97239  1  0
 97240  1  0
 98241  1  0
 98242  1  0
101243  1  0
M  END
$$$$
