
     RDKit          3D

153152  0  0  0  0  0  0  0  0999 V2000
    6.3178    8.6617    4.7905 O   0  0  0  0  0  0  0  0  0  0  0  0
    7.2874    7.6324    4.8576 C   0  0  2  0  0  0  0  0  0  0  0  0
    8.5853    8.1155    5.4105 C   0  0  0  0  0  0  0  0  0  0  0  0
    9.6134    6.9839    5.4820 C   0  0  0  0  0  0  0  0  0  0  0  0
    7.4227    7.0190    3.4528 C   0  0  0  0  0  0  0  0  0  0  0  0
    6.0618    6.5001    3.1536 C   0  0  0  0  0  0  0  0  0  0  0  0
    5.1116    6.5615    4.0104 O   0  0  0  0  0  0  0  0  0  0  0  0
    5.7158    5.9164    1.9396 O   0  0  0  0  0  0  0  0  0  0  0  0
    4.4008    5.4228    1.6961 C   0  0  2  0  0  0  0  0  0  0  0  0
    4.6293    3.9225    1.4555 C   0  0  0  0  0  0  0  0  0  0  0  0
    5.2738    3.2973    2.6874 C   0  0  0  0  0  0  0  0  0  0  0  0
    3.7792    5.9814    0.4449 C   0  0  0  0  0  0  0  0  0  0  0  0
    2.4151    5.4252    0.3065 C   0  0  0  0  0  0  0  0  0  0  0  0
    1.8917    4.6786    1.2104 O   0  0  0  0  0  0  0  0  0  0  0  0
    1.5904    5.6513   -0.7917 O   0  0  0  0  0  0  0  0  0  0  0  0
    0.3038    5.1120   -0.9103 C   0  0  2  0  0  0  0  0  0  0  0  0
    0.3568    4.0837   -2.0384 C   0  0  0  0  0  0  0  0  0  0  0  0
    0.7576    4.6841   -3.3636 C   0  0  0  0  0  0  0  0  0  0  0  0
   -0.8031    6.0983   -1.0718 C   0  0  0  0  0  0  0  0  0  0  0  0
   -2.0672    5.2870   -1.1886 C   0  0  0  0  0  0  0  0  0  0  0  0
   -2.4184    4.7755   -2.2872 O   0  0  0  0  0  0  0  0  0  0  0  0
   -2.8955    5.0708   -0.0700 O   0  0  0  0  0  0  0  0  0  0  0  0
   -4.0661    4.2656   -0.2708 C   0  0  2  0  0  0  0  0  0  0  0  0
   -5.3006    5.0890    0.0136 C   0  0  0  0  0  0  0  0  0  0  0  0
   -5.3385    5.6025    1.4175 C   0  0  0  0  0  0  0  0  0  0  0  0
   -4.0492    3.0952    0.6753 C   0  0  0  0  0  0  0  0  0  0  0  0
   -5.2244    2.1684    0.5077 C   0  0  0  0  0  0  0  0  0  0  0  0
   -6.3008    2.3476    1.1584 O   0  0  0  0  0  0  0  0  0  0  0  0
   -5.0338    1.1362   -0.3820 O   0  0  0  0  0  0  0  0  0  0  0  0
   -5.8540    0.1009   -0.7680 C   0  0  2  0  0  0  0  0  0  0  0  0
   -5.4767   -1.2237   -0.1701 C   0  0  0  0  0  0  0  0  0  0  0  0
   -4.0994   -1.6435   -0.5104 C   0  0  0  0  0  0  0  0  0  0  0  0
   -6.2987    0.0308   -2.1745 C   0  0  0  0  0  0  0  0  0  0  0  0
   -5.1968    0.0004   -3.1330 C   0  0  0  0  0  0  0  0  0  0  0  0
   -3.9789    0.1567   -2.8732 O   0  0  0  0  0  0  0  0  0  0  0  0
   -5.5236   -0.2160   -4.4663 O   0  0  0  0  0  0  0  0  0  0  0  0
   -4.5622   -0.2310   -5.4550 C   0  0  2  0  0  0  0  0  0  0  0  0
   -4.7914    1.0794   -6.2610 C   0  0  0  0  0  0  0  0  0  0  0  0
   -3.7888    1.1684   -7.3806 C   0  0  0  0  0  0  0  0  0  0  0  0
   -4.5285   -1.3448   -6.4206 C   0  0  0  0  0  0  0  0  0  0  0  0
   -4.2923   -2.7006   -5.9517 C   0  0  0  0  0  0  0  0  0  0  0  0
   -4.6183   -3.6440   -6.7779 O   0  0  0  0  0  0  0  0  0  0  0  0
   -3.7692   -3.1209   -4.7619 O   0  0  0  0  0  0  0  0  0  0  0  0
   -3.5831   -4.4735   -4.4429 C   0  0  2  0  0  0  0  0  0  0  0  0
   -4.3890   -4.8976   -3.2802 C   0  0  0  0  0  0  0  0  0  0  0  0
   -4.1690   -6.3736   -2.9557 C   0  0  0  0  0  0  0  0  0  0  0  0
   -2.1103   -4.8380   -4.3769 C   0  0  0  0  0  0  0  0  0  0  0  0
   -1.3592   -4.0577   -3.3936 C   0  0  0  0  0  0  0  0  0  0  0  0
   -1.8141   -3.1237   -2.7000 O   0  0  0  0  0  0  0  0  0  0  0  0
    0.0037   -4.3602   -3.1831 O   0  0  0  0  0  0  0  0  0  0  0  0
    0.7478   -3.5861   -2.2235 C   0  0  2  0  0  0  0  0  0  0  0  0
    1.8922   -2.9110   -2.8798 C   0  0  0  0  0  0  0  0  0  0  0  0
    2.8102   -3.9546   -3.4894 C   0  0  0  0  0  0  0  0  0  0  0  0
    1.0902   -4.4796   -1.0832 C   0  0  0  0  0  0  0  0  0  0  0  0
    1.8647   -3.8593    0.0077 C   0  0  0  0  0  0  0  0  0  0  0  0
    2.8091   -3.0355   -0.1825 O   0  0  0  0  0  0  0  0  0  0  0  0
    1.6096   -4.1341    1.3690 O   0  0  0  0  0  0  0  0  0  0  0  0
    2.3042   -3.5889    2.4363 C   0  0  2  0  0  0  0  0  0  0  0  0
    3.0413   -4.5385    3.2973 C   0  0  0  0  0  0  0  0  0  0  0  0
    4.0684   -5.2637    2.4271 C   0  0  0  0  0  0  0  0  0  0  0  0
    1.5635   -2.5034    3.1872 C   0  0  0  0  0  0  0  0  0  0  0  0
    0.3002   -2.8556    3.7791 C   0  0  0  0  0  0  0  0  0  0  0  0
   -0.3205   -2.0480    4.5396 O   0  0  0  0  0  0  0  0  0  0  0  0
   -0.2840   -4.0715    3.5460 O   0  0  0  0  0  0  0  0  0  0  0  0
   -1.5309   -4.4597    4.1075 C   0  0  2  0  0  0  0  0  0  0  0  0
   -1.3090   -5.7290    4.8745 C   0  0  0  0  0  0  0  0  0  0  0  0
   -0.8015   -6.8491    3.9915 C   0  0  0  0  0  0  0  0  0  0  0  0
   -2.4742   -4.6381    2.9331 C   0  0  0  0  0  0  0  0  0  0  0  0
   -3.8185   -5.0389    3.3481 C   0  0  0  0  0  0  0  0  0  0  0  0
   -4.6733   -5.2484    2.4307 O   0  0  0  0  0  0  0  0  0  0  0  0
   -4.2527   -5.2119    4.6419 O   0  0  0  0  0  0  0  0  0  0  0  0
    5.5912    8.5178    5.4498 H   0  0  0  0  0  0  0  0  0  0  0  0
    6.8850    6.8824    5.5664 H   0  0  0  0  0  0  0  0  0  0  0  0
    9.0122    8.9890    4.8716 H   0  0  0  0  0  0  0  0  0  0  0  0
    8.3996    8.4390    6.4522 H   0  0  0  0  0  0  0  0  0  0  0  0
   10.4945    7.1800    4.8557 H   0  0  0  0  0  0  0  0  0  0  0  0
   10.0228    6.8849    6.5266 H   0  0  0  0  0  0  0  0  0  0  0  0
    9.1127    6.0144    5.2809 H   0  0  0  0  0  0  0  0  0  0  0  0
    7.7694    7.7798    2.7469 H   0  0  0  0  0  0  0  0  0  0  0  0
    8.1743    6.2067    3.4936 H   0  0  0  0  0  0  0  0  0  0  0  0
    3.7091    5.5187    2.5236 H   0  0  0  0  0  0  0  0  0  0  0  0
    3.7089    3.3587    1.2826 H   0  0  0  0  0  0  0  0  0  0  0  0
    5.3863    3.7790    0.6401 H   0  0  0  0  0  0  0  0  0  0  0  0
    4.7696    3.6107    3.6305 H   0  0  0  0  0  0  0  0  0  0  0  0
    6.3550    3.5753    2.7119 H   0  0  0  0  0  0  0  0  0  0  0  0
    5.2210    2.2015    2.6131 H   0  0  0  0  0  0  0  0  0  0  0  0
    4.3930    5.6869   -0.4597 H   0  0  0  0  0  0  0  0  0  0  0  0
    3.7538    7.0945    0.4434 H   0  0  0  0  0  0  0  0  0  0  0  0
    0.0307    4.4923   -0.0020 H   0  0  0  0  0  0  0  0  0  0  0  0
   -0.5516    3.4552   -2.0921 H   0  0  0  0  0  0  0  0  0  0  0  0
    1.1792    3.3314   -1.8124 H   0  0  0  0  0  0  0  0  0  0  0  0
    0.9573    3.8171   -4.0351 H   0  0  0  0  0  0  0  0  0  0  0  0
   -0.0493    5.2620   -3.8588 H   0  0  0  0  0  0  0  0  0  0  0  0
    1.6346    5.3175   -3.2077 H   0  0  0  0  0  0  0  0  0  0  0  0
   -0.8876    6.6992   -0.1606 H   0  0  0  0  0  0  0  0  0  0  0  0
   -0.6888    6.7712   -1.9386 H   0  0  0  0  0  0  0  0  0  0  0  0
   -4.1112    3.9468   -1.3289 H   0  0  0  0  0  0  0  0  0  0  0  0
   -6.1746    4.4328   -0.2381 H   0  0  0  0  0  0  0  0  0  0  0  0
   -5.3664    5.9119   -0.7434 H   0  0  0  0  0  0  0  0  0  0  0  0
   -4.3721    5.5027    1.9438 H   0  0  0  0  0  0  0  0  0  0  0  0
   -5.6321    6.6764    1.3812 H   0  0  0  0  0  0  0  0  0  0  0  0
   -6.1390    5.0148    1.9466 H   0  0  0  0  0  0  0  0  0  0  0  0
   -3.1460    2.4787    0.6378 H   0  0  0  0  0  0  0  0  0  0  0  0
   -4.1076    3.4923    1.7363 H   0  0  0  0  0  0  0  0  0  0  0  0
   -6.8391    0.3518   -0.1246 H   0  0  0  0  0  0  0  0  0  0  0  0
   -5.5306   -1.1560    0.9575 H   0  0  0  0  0  0  0  0  0  0  0  0
   -6.1684   -2.0213   -0.5323 H   0  0  0  0  0  0  0  0  0  0  0  0
   -3.9888   -2.1185   -1.4832 H   0  0  0  0  0  0  0  0  0  0  0  0
   -3.3599   -0.8117   -0.4383 H   0  0  0  0  0  0  0  0  0  0  0  0
   -3.8213   -2.4557    0.2351 H   0  0  0  0  0  0  0  0  0  0  0  0
   -7.0602   -0.7654   -2.3605 H   0  0  0  0  0  0  0  0  0  0  0  0
   -6.8634    0.9944   -2.3888 H   0  0  0  0  0  0  0  0  0  0  0  0
   -3.5626   -0.0570   -4.9461 H   0  0  0  0  0  0  0  0  0  0  0  0
   -4.6848    1.9641   -5.6408 H   0  0  0  0  0  0  0  0  0  0  0  0
   -5.8084    1.0544   -6.6903 H   0  0  0  0  0  0  0  0  0  0  0  0
   -2.8327    0.7421   -6.9928 H   0  0  0  0  0  0  0  0  0  0  0  0
   -3.6741    2.1812   -7.7795 H   0  0  0  0  0  0  0  0  0  0  0  0
   -4.1045    0.5383   -8.2534 H   0  0  0  0  0  0  0  0  0  0  0  0
   -3.6675   -1.1117   -7.1363 H   0  0  0  0  0  0  0  0  0  0  0  0
   -5.4425   -1.2680   -7.0689 H   0  0  0  0  0  0  0  0  0  0  0  0
   -3.9908   -5.0588   -5.3342 H   0  0  0  0  0  0  0  0  0  0  0  0
   -5.4723   -4.8188   -3.5925 H   0  0  0  0  0  0  0  0  0  0  0  0
   -4.3234   -4.2809   -2.3686 H   0  0  0  0  0  0  0  0  0  0  0  0
   -3.4497   -6.4345   -2.1054 H   0  0  0  0  0  0  0  0  0  0  0  0
   -3.8209   -6.9401   -3.8366 H   0  0  0  0  0  0  0  0  0  0  0  0
   -5.1099   -6.8504   -2.6071 H   0  0  0  0  0  0  0  0  0  0  0  0
   -1.6850   -4.7366   -5.4091 H   0  0  0  0  0  0  0  0  0  0  0  0
   -2.0314   -5.9113   -4.1138 H   0  0  0  0  0  0  0  0  0  0  0  0
    0.0697   -2.7946   -1.7956 H   0  0  0  0  0  0  0  0  0  0  0  0
    2.3823   -2.1860   -2.2389 H   0  0  0  0  0  0  0  0  0  0  0  0
    1.5120   -2.3194   -3.7565 H   0  0  0  0  0  0  0  0  0  0  0  0
    3.3288   -3.5034   -4.3616 H   0  0  0  0  0  0  0  0  0  0  0  0
    3.4909   -4.3620   -2.7459 H   0  0  0  0  0  0  0  0  0  0  0  0
    2.1350   -4.8021   -3.7897 H   0  0  0  0  0  0  0  0  0  0  0  0
    0.1419   -4.9450   -0.7044 H   0  0  0  0  0  0  0  0  0  0  0  0
    1.6892   -5.3665   -1.4558 H   0  0  0  0  0  0  0  0  0  0  0  0
    3.1172   -2.9701    1.9288 H   0  0  0  0  0  0  0  0  0  0  0  0
    2.4458   -5.1973    3.9242 H   0  0  0  0  0  0  0  0  0  0  0  0
    3.6618   -3.9197    4.0124 H   0  0  0  0  0  0  0  0  0  0  0  0
    3.7391   -5.2258    1.3469 H   0  0  0  0  0  0  0  0  0  0  0  0
    4.2444   -6.2992    2.7327 H   0  0  0  0  0  0  0  0  0  0  0  0
    5.0519   -4.7503    2.4421 H   0  0  0  0  0  0  0  0  0  0  0  0
    2.2198   -2.0598    3.9720 H   0  0  0  0  0  0  0  0  0  0  0  0
    1.3872   -1.6594    2.4581 H   0  0  0  0  0  0  0  0  0  0  0  0
   -1.9466   -3.6756    4.7515 H   0  0  0  0  0  0  0  0  0  0  0  0
   -2.2157   -6.0092    5.4039 H   0  0  0  0  0  0  0  0  0  0  0  0
   -0.5266   -5.5640    5.6595 H   0  0  0  0  0  0  0  0  0  0  0  0
   -0.2046   -7.5626    4.6204 H   0  0  0  0  0  0  0  0  0  0  0  0
   -0.1336   -6.4792    3.1971 H   0  0  0  0  0  0  0  0  0  0  0  0
   -1.6369   -7.4541    3.5878 H   0  0  0  0  0  0  0  0  0  0  0  0
   -2.5736   -3.6220    2.4594 H   0  0  0  0  0  0  0  0  0  0  0  0
   -2.0319   -5.3290    2.2065 H   0  0  0  0  0  0  0  0  0  0  0  0
   -4.9812   -5.8992    4.8545 H   0  0  0  0  0  0  0  0  0  0  0  0
  1  2  1  0
  2  3  1  0
  3  4  1  0
  2  5  1  0
  5  6  1  0
  6  7  2  0
  6  8  1  0
  8  9  1  0
  9 10  1  0
 10 11  1  0
  9 12  1  0
 12 13  1  0
 13 14  2  0
 13 15  1  0
 15 16  1  0
 16 17  1  0
 17 18  1  0
 16 19  1  0
 19 20  1  0
 20 21  2  0
 20 22  1  0
 22 23  1  0
 23 24  1  0
 24 25  1  0
 23 26  1  0
 26 27  1  0
 27 28  2  0
 27 29  1  0
 29 30  1  0
 30 31  1  0
 31 32  1  0
 30 33  1  0
 33 34  1  0
 34 35  2  0
 34 36  1  0
 36 37  1  0
 37 38  1  0
 38 39  1  0
 37 40  1  0
 40 41  1  0
 41 42  2  0
 41 43  1  0
 43 44  1  0
 44 45  1  0
 45 46  1  0
 44 47  1  0
 47 48  1  0
 48 49  2  0
 48 50  1  0
 50 51  1  0
 51 52  1  0
 52 53  1  0
 51 54  1  0
 54 55  1  0
 55 56  2  0
 55 57  1  0
 57 58  1  0
 58 59  1  0
 59 60  1  0
 58 61  1  0
 61 62  1  0
 62 63  2  0
 62 64  1  0
 64 65  1  0
 65 66  1  0
 66 67  1  0
 65 68  1  0
 68 69  1  0
 69 70  2  0
 69 71  1  0
  1 72  1  0
  2 73  1  1
  3 74  1  0
  3 75  1  0
  4 76  1  0
  4 77  1  0
  4 78  1  0
  5 79  1  0
  5 80  1  0
  9 81  1  1
 10 82  1  0
 10 83  1  0
 11 84  1  0
 11 85  1  0
 11 86  1  0
 12 87  1  0
 12 88  1  0
 16 89  1  1
 17 90  1  0
 17 91  1  0
 18 92  1  0
 18 93  1  0
 18 94  1  0
 19 95  1  0
 19 96  1  0
 23 97  1  6
 24 98  1  0
 24 99  1  0
 25100  1  0
 25101  1  0
 25102  1  0
 26103  1  0
 26104  1  0
 30105  1  1
 31106  1  0
 31107  1  0
 32108  1  0
 32109  1  0
 32110  1  0
 33111  1  0
 33112  1  0
 37113  1  1
 38114  1  0
 38115  1  0
 39116  1  0
 39117  1  0
 39118  1  0
 40119  1  0
 40120  1  0
 44121  1  6
 45122  1  0
 45123  1  0
 46124  1  0
 46125  1  0
 46126  1  0
 47127  1  0
 47128  1  0
 51129  1  1
 52130  1  0
 52131  1  0
 53132  1  0
 53133  1  0
 53134  1  0
 54135  1  0
 54136  1  0
 58137  1  6
 59138  1  0
 59139  1  0
 60140  1  0
 60141  1  0
 60142  1  0
 61143  1  0
 61144  1  0
 65145  1  1
 66146  1  0
 66147  1  0
 67148  1  0
 67149  1  0
 67150  1  0
 68151  1  0
 68152  1  0
 71153  1  0
M  END
$$$$
